23
symmetry c1
Ni     0.83790    0.00638    0.00502
C      1.33771   -0.17195    1.73111
C      1.36973   -1.38813   -1.01138
C      1.33687    1.59507   -0.69356
O      1.65844   -0.28514    2.82425
O      1.71096   -2.27106   -1.65533
O      1.65702    2.60141   -1.13565
P     -1.40189   -0.01602   -0.01066
C     -2.16723   -1.27816   -1.09240
C     -1.69300   -0.13717    1.79197
C     -2.20030    1.41070   -0.85482
H     -1.50224    2.10734   -1.31829
C     -3.50860    1.67403   -0.95591
H     -4.27378    1.03534   -0.52510
H     -3.85957    2.55454   -1.48357
H     -3.26059   -1.25613   -0.94236
H     -1.81357   -2.27515   -0.77718
O     -1.84449   -1.04257   -2.46619
H     -2.27220   -1.73363   -2.98260
H     -2.73018    0.17531    2.00422
H     -1.02477    0.57497    2.30650
O     -1.46417   -1.46902    2.26183
H     -1.63197   -1.47014    3.21000
