21
symmetry c1
Ni     0.83790    0.00638    0.00502
C      1.33771   -0.17195    1.73111
C      1.36973   -1.38813   -1.01138
C      1.33687    1.59507   -0.69356
O      1.65844   -0.28514    2.82425
O      1.71096   -2.27106   -1.65533
O      1.65702    2.60141   -1.13565
P     -1.40189   -0.01602   -0.01066
C     -2.13808   -1.24585   -1.14839
C     -1.67628   -0.20600    1.78865
C     -2.20030    1.41070   -0.85482
H     -1.50224    2.10734   -1.31829
C     -3.50860    1.67403   -0.95591
H     -4.27378    1.03534   -0.52510
H     -3.85957    2.55454   -1.48357
F     -3.51399   -1.24319   -1.01113
F     -1.65311   -2.50597   -0.85024
F     -1.81000   -0.92870   -2.45368
F     -1.05689   -1.35858    2.23576
F     -3.03210   -0.28783    2.04758
F     -1.14967    0.88314    2.45830
