25
symmetry c1
Ni     0.83790    0.00638    0.00502
C      1.33771   -0.17195    1.73111
C      1.36973   -1.38813   -1.01138
C      1.33687    1.59507   -0.69356
O      1.65844   -0.28514    2.82425
O      1.71096   -2.27106   -1.65533
O      1.65702    2.60141   -1.13565
P     -1.40189   -0.01602   -0.01066
C     -2.13808   -1.24585   -1.14839
I     -1.76175   -0.26518    2.34909
C     -2.20030    1.41070   -0.85482
H     -1.50224    2.10734   -1.31829
C     -3.50860    1.67403   -0.95591
H     -4.27378    1.03534   -0.52510
H     -3.85957    2.55454   -1.48357
C     -3.09042   -2.15449   -0.67495
C     -1.74848   -1.27728   -2.49150
C     -3.26356   -3.12599   -2.88773
C     -2.31122   -2.21735   -3.36117
C     -3.65316   -3.09456   -1.54462
H     -4.39341   -3.80084   -1.17661
H     -3.70097   -3.85670   -3.56371
H     -2.00838   -2.24178   -4.40516
F     -3.46642   -2.12416    0.62128
F     -0.82938   -0.40036   -2.94842
