22
symmetry c1
Ni     0.83790    0.00638    0.00502
C      1.33771   -0.17195    1.73111
C      1.36973   -1.38813   -1.01138
C      1.33687    1.59507   -0.69356
O      1.65844   -0.28514    2.82425
O      1.71096   -2.27106   -1.65533
O      1.65702    2.60141   -1.13565
P     -1.40189   -0.01602   -0.01066
C     -2.13808   -1.24585   -1.14839
C     -1.68949   -0.27486    1.77797
C     -2.20030    1.41070   -0.85482
H     -1.50224    2.10734   -1.31829
C     -3.50860    1.67403   -0.95591
H     -4.27378    1.03534   -0.52510
H     -3.85957    2.55454   -1.48357
F     -3.51399   -1.24319   -1.01113
F     -1.65311   -2.50597   -0.85024
F     -1.81000   -0.92870   -2.45368
H     -0.98348   -1.04125    2.14214
H     -2.70844   -0.67566    1.91768
O     -1.52584    0.94507    2.50733
H     -1.68861    0.74694    3.43546
