37
symmetry c1
Ni     0.83790    0.00638    0.00502
C      1.33771   -0.17195    1.73111
C      1.36973   -1.38813   -1.01138
C      1.33687    1.59507   -0.69356
O      1.65844   -0.28514    2.82425
O      1.71096   -2.27106   -1.65533
O      1.65702    2.60141   -1.13565
P     -1.40189   -0.01602   -0.01066
C     -2.16958   -1.28074   -1.08770
C     -1.67628   -0.20598    1.78865
C     -2.20030    1.41070   -0.85482
H     -1.50224    2.10734   -1.31829
C     -3.50860    1.67403   -0.95591
H     -4.27378    1.03534   -0.52510
H     -3.85957    2.55454   -1.48357
O     -2.86209   -2.20114   -0.69929
O     -1.88712   -1.09497   -2.41605
H     -2.34039   -1.81454   -2.88438
C     -1.48706   -1.44776    2.39582
C     -2.07468    0.89060    2.55307
C     -1.69557   -1.59268    3.76722
C     -2.28425    0.74557    3.92473
C     -2.09464   -0.49577    4.53191
H     -1.54584   -2.57128    4.24598
H     -2.59878    1.61026    4.52712
C     -1.04614   -2.65795    1.55164
H     -0.12637   -2.43004    1.05467
H     -1.79926   -2.87890    0.82439
H     -0.90644   -3.50574    2.18932
C     -2.32487   -0.65614    6.04613
H     -1.41600   -0.97305    6.51349
H     -3.08700   -1.38783    6.21550
H     -2.63157    0.28104    6.46150
C     -2.28385    2.26133    1.88305
H     -3.07540    2.19101    1.16653
H     -1.38192    2.55872    1.39011
H     -2.53956    2.98665    2.62697
