37
symmetry c1
Ni     0.83790    0.00638    0.00502
C      1.33771   -0.17195    1.73111
C      1.36973   -1.38813   -1.01138
C      1.33687    1.59507   -0.69356
O      1.65844   -0.28514    2.82425
O      1.71096   -2.27106   -1.65533
O      1.65702    2.60141   -1.13565
P     -1.40189   -0.01602   -0.01066
C     -2.17187   -1.28324   -1.08312
C     -1.67628   -0.20600    1.78865
C     -2.20030    1.41070   -0.85482
H     -1.50224    2.10734   -1.31829
C     -3.50860    1.67403   -0.95591
H     -4.27378    1.03534   -0.52510
H     -3.85957    2.55454   -1.48357
O     -2.86306   -2.19965   -0.68151
O     -1.88386   -1.08793   -2.40113
C     -2.46522   -2.05967   -3.30303
H     -2.13876   -1.75776   -4.30032
H     -3.55740   -2.04252   -3.22632
H     -2.10540   -3.06505   -3.06056
H     -0.91195    0.25934    2.23650
C     -1.60759   -1.65999    2.24161
H     -0.76982   -2.07436    1.91627
H     -2.37114   -2.16628    1.86394
C     -1.65339   -1.71399    3.77167
H     -1.63105   -2.65765    4.07002
H     -0.85899   -1.25545    4.14208
C     -2.91637   -1.04583    4.29427
H     -2.91692   -1.06941    5.28347
H     -3.70954   -1.54509    3.97636
C     -3.00101    0.40148    3.81819
H     -2.25234    0.91903    4.20488
H     -3.84803    0.80397    4.13664
C     -2.94044    0.48386    2.28984
H     -3.73805    0.04575    1.89939
H     -2.93916    1.43160    2.00534
