21
symmetry c1
Ni     0.83790    0.00638    0.00502
C      1.33771   -0.17195    1.73111
C      1.36973   -1.38813   -1.01138
C      1.33687    1.59507   -0.69356
O      1.65844   -0.28514    2.82425
O      1.71096   -2.27106   -1.65533
O      1.65702    2.60141   -1.13565
P     -1.40189   -0.01602   -0.01066
Cl    -2.24268   -1.42058   -1.31004
C     -1.66531   -0.16795    1.79389
C     -2.20030    1.41070   -0.85482
H     -1.50224    2.10734   -1.31829
C     -3.50860    1.67403   -0.95591
H     -4.27378    1.03534   -0.52510
H     -3.85957    2.55454   -1.48357
H     -1.01635   -0.93875    2.22494
H     -1.43781    0.77897    2.30244
C     -3.12828   -0.52705    2.11387
H     -3.38946   -0.13610    3.07504
H     -3.77037   -0.10351    1.37007
H     -3.24148   -1.59103    2.11882
