32
symmetry c1
Ni     0.83790    0.00638    0.00502
C      1.33771   -0.17195    1.73111
C      1.36973   -1.38813   -1.01138
C      1.33687    1.59507   -0.69356
O      1.65844   -0.28514    2.82425
O      1.71096   -2.27106   -1.65533
O      1.65702    2.60141   -1.13565
P     -1.40189   -0.01602   -0.01066
C     -2.13808   -1.24585   -1.14839
S     -1.76585   -0.16603    2.07247
C     -2.20030    1.41070   -0.85482
H     -1.50224    2.10734   -1.31829
C     -3.50860    1.67403   -0.95591
H     -4.27378    1.03534   -0.52510
H     -3.85957    2.55454   -1.48357
H     -3.09879   -0.98637   -1.25346
C     -2.14381   -2.65421   -0.56490
H     -2.55354   -2.64336    0.33589
H     -1.21415   -2.98633   -0.47887
C     -2.94332   -3.57894   -1.48782
H     -2.93152   -4.49964   -1.12424
H     -3.88397   -3.27510   -1.52522
C     -2.35241   -3.57886   -2.88978
H     -2.89509   -4.16222   -3.47652
H     -1.43342   -3.94499   -2.86055
C     -2.31964   -2.16563   -3.46443
H     -3.24463   -1.83243   -3.57062
H     -1.89617   -2.18377   -4.35953
C     -1.53886   -1.21642   -2.55028
H     -0.58875   -1.49308   -2.51403
H     -1.57822   -0.29593   -2.91128
H     -1.06067   -1.29787    2.26986
