37
symmetry c1
Ni     0.83790    0.00638    0.00502
C      1.33771   -0.17195    1.73111
C      1.36973   -1.38813   -1.01138
C      1.33687    1.59507   -0.69356
O      1.65844   -0.28514    2.82425
O      1.71096   -2.27106   -1.65533
O      1.65702    2.60141   -1.13565
P     -1.40189   -0.01602   -0.01066
C     -2.13808   -1.24585   -1.14839
C     -1.67627   -0.20599    1.78865
C     -2.20030    1.41070   -0.85482
H     -1.50224    2.10734   -1.31829
C     -3.50860    1.67403   -0.95591
H     -4.27378    1.03534   -0.52510
H     -3.85957    2.55454   -1.48357
H     -1.76315   -2.26187   -0.90235
H     -1.86402   -1.00375   -2.19704
H     -3.24449   -1.23605   -1.05268
C     -1.79676   -1.47963    2.34523
C     -1.76507    0.92248    2.60365
C     -2.00532   -1.62471    3.71660
C     -1.97468    0.77756    3.97532
C     -2.09467   -0.49576    4.53190
H     -2.09966   -2.62860    4.15547
H     -2.04506    1.66750    4.61761
C     -1.69757   -2.72530    1.44518
H     -0.76118   -2.71763    0.92749
H     -2.49784   -2.71681    0.73497
H     -1.76479   -3.60696    2.04773
C     -2.32504   -0.65629    6.04609
H     -1.51705   -1.21309    6.47274
H     -3.24467   -1.17695    6.21372
H     -2.37346    0.30962    6.50388
C     -1.63236    2.32847    1.98949
H     -2.43113    2.49183    1.29654
H     -0.69541    2.40763    1.47886
H     -1.67834    3.06282    2.76635
