20
symmetry c1
Ni     0.83790    0.00638    0.00502
C      1.33771   -0.17195    1.73111
C      1.36973   -1.38813   -1.01138
C      1.33687    1.59507   -0.69356
O      1.65844   -0.28514    2.82425
O      1.71096   -2.27106   -1.65533
O      1.65702    2.60141   -1.13565
P     -1.40189   -0.01602   -0.01066
C     -2.16958   -1.28074   -1.08770
N     -1.75291   -0.19773    1.72490
C     -2.20030    1.41070   -0.85482
H     -1.50224    2.10734   -1.31829
C     -3.50860    1.67403   -0.95591
H     -4.27378    1.03534   -0.52510
H     -3.85957    2.55454   -1.48357
O     -2.86209   -2.20114   -0.69929
O     -1.88712   -1.09497   -2.41605
H     -2.34039   -1.81454   -2.88438
H     -1.46901   -1.08553    2.11659
H     -1.43939    0.57508    2.29644
