38
symmetry c1
Ni     0.83790    0.00638    0.00502
C      1.33771   -0.17195    1.73111
C      1.36973   -1.38813   -1.01138
C      1.33687    1.59507   -0.69356
O      1.65844   -0.28514    2.82425
O      1.71096   -2.27106   -1.65533
O      1.65702    2.60141   -1.13565
P     -1.40189   -0.01602   -0.01066
C     -2.13808   -1.24586   -1.14837
S     -1.61601   -0.32750    2.07537
C     -2.20030    1.41070   -0.85482
H     -1.50224    2.10734   -1.31829
C     -3.50860    1.67403   -0.95591
H     -4.27378    1.03534   -0.52510
H     -3.85957    2.55454   -1.48357
C     -1.82445   -1.21424   -2.50746
C     -3.01282   -2.21479   -0.65689
C     -2.38496   -2.15179   -3.37467
C     -3.57435   -3.15209   -1.52439
C     -3.26047   -3.12082   -2.88309
H     -2.13731   -2.12731   -4.44583
H     -4.26433   -3.91567   -1.13666
C     -0.85779   -0.14496   -3.04949
H      0.07684   -0.21452   -2.53322
H     -1.27851    0.82683   -2.89610
H     -0.70005   -0.30424   -4.09574
C     -3.87926   -4.15584   -3.84092
H     -3.10003   -4.72818   -4.29931
H     -4.44236   -3.65000   -4.59719
H     -4.52532   -4.80848   -3.29177
C     -3.35935   -2.24975    0.84321
H     -3.85734   -1.34267    1.11547
H     -2.46019   -2.34839    1.41478
H     -4.00129   -3.08247    1.04167
C     -2.99896    0.77815    2.52411
H     -2.74981    1.82338    2.31368
H     -3.91514    0.49486    1.99569
H     -3.14380    0.64754    3.60057
