25
symmetry c1
Ni     0.83790    0.00638    0.00502
C      1.33771   -0.17195    1.73111
C      1.36973   -1.38813   -1.01138
C      1.33687    1.59507   -0.69356
O      1.65844   -0.28514    2.82425
O      1.71096   -2.27106   -1.65533
O      1.65702    2.60141   -1.13565
P     -1.40189   -0.01602   -0.01066
C     -2.17187   -1.28324   -1.08312
O     -1.62796   -0.32706    1.67607
C     -2.20030    1.41070   -0.85482
H     -1.50224    2.10734   -1.31829
C     -3.50860    1.67403   -0.95591
H     -4.27378    1.03534   -0.52510
H     -3.85957    2.55454   -1.48357
O     -2.86306   -2.19965   -0.68151
O     -1.88386   -1.08793   -2.40113
C     -2.46522   -2.05967   -3.30303
H     -2.13876   -1.75776   -4.30032
H     -3.55740   -2.04252   -3.22632
H     -2.10540   -3.06505   -3.06056
C     -2.03076    0.76947    2.49884
H     -1.28211    1.57518    2.47903
H     -3.00158    1.17223    2.17426
H     -2.11610    0.36764    3.51157
