29
symmetry c1
Ni     0.83790    0.00638    0.00502
C      1.33771   -0.17195    1.73111
C      1.36973   -1.38813   -1.01138
C      1.33687    1.59507   -0.69356
O      1.65844   -0.28514    2.82425
O      1.71096   -2.27106   -1.65533
O      1.65702    2.60141   -1.13565
P     -1.40189   -0.01602   -0.01066
C     -2.10298   -1.26486   -1.14986
N     -1.61200   -0.18212    1.74907
C     -2.20030    1.41070   -0.85482
H     -1.50224    2.10734   -1.31829
C     -3.50860    1.67403   -0.95591
H     -4.27378    1.03534   -0.52510
H     -3.85957    2.55454   -1.48357
H     -2.45823   -0.79987   -2.07650
H     -1.34552   -2.01215   -1.42346
C     -3.27983   -2.01390   -0.49751
H     -3.34530   -3.00049   -0.90648
H     -3.12174   -2.07550    0.55895
H     -4.19013   -1.48615   -0.69176
C     -2.37292    0.83457    2.46375
H     -2.39296    0.58250    3.52729
H     -1.89353    1.81563    2.36091
H     -3.41180    0.92111    2.09966
C     -1.57432   -1.51482    2.33723
H     -0.60104   -1.98680    2.15607
H     -1.70857   -1.43074    3.41887
H     -2.35790   -2.17942    1.93271
