37
symmetry c1
Ni     0.83790    0.00638    0.00502
C      1.33771   -0.17195    1.73111
C      1.36973   -1.38813   -1.01138
C      1.33687    1.59507   -0.69356
O      1.65844   -0.28514    2.82425
O      1.71096   -2.27106   -1.65533
O      1.65702    2.60141   -1.13565
P     -1.40189   -0.01602   -0.01066
C     -2.13808   -1.24585   -1.14839
C     -1.67628   -0.20598    1.78865
C     -2.20030    1.41070   -0.85482
H     -1.50224    2.10734   -1.31829
C     -3.50860    1.67403   -0.95591
H     -4.27378    1.03534   -0.52510
H     -3.85957    2.55454   -1.48357
F     -1.84243   -2.63015   -0.68320
H     -3.21781   -1.09004   -1.22060
H     -1.72239   -1.09948   -2.15047
C     -1.38726   -1.41916    2.41406
C     -2.17445    0.86200    2.53483
C     -1.59576   -1.56402    3.78547
C     -2.38401    0.71694    3.90650
C     -2.09463   -0.49577    4.53191
H     -1.36739   -2.52004    4.27861
H     -2.77719    1.55904    4.49450
C     -0.83623   -2.59768    1.59001
H      0.06537   -2.29806    1.09785
H     -1.56064   -2.89162    0.85944
H     -0.63058   -3.42222    2.24020
C     -2.32482   -0.65608    6.04615
H     -1.39668   -0.88793    6.52542
H     -3.02308   -1.44822    6.21887
H     -2.71463    0.25654    6.44624
C     -2.49379    2.20114    1.84468
H     -3.26949    2.05412    1.12247
H     -1.61595    2.56850    1.35546
H     -2.81781    2.91124    2.57657
