29
symmetry c1
Ni     0.83790    0.00638    0.00502
C      1.33771   -0.17195    1.73111
C      1.36973   -1.38813   -1.01138
C      1.33687    1.59507   -0.69356
O      1.65844   -0.28514    2.82425
O      1.71096   -2.27106   -1.65533
O      1.65702    2.60141   -1.13565
P     -1.40189   -0.01602   -0.01066
C     -2.13808   -1.24585   -1.14839
C     -1.67628   -0.20600    1.78865
C     -2.20030    1.41070   -0.85482
H     -1.50224    2.10734   -1.31829
C     -3.50860    1.67403   -0.95591
H     -4.27378    1.03534   -0.52510
H     -3.85957    2.55454   -1.48357
N     -3.14789   -1.99548   -0.61265
O     -1.75777   -1.39711   -2.32216
H     -3.60556   -2.68514   -1.15527
H     -3.44066   -1.86544    0.32009
C     -1.86413    0.92453    2.59072
C     -1.69818   -1.48177    2.36195
C     -2.09578   -0.49645    4.53939
C     -1.90793   -1.62699    3.73732
C     -2.07388    0.77931    3.96609
H     -1.84711    1.91618    2.14510
H     -2.21990    1.65807    4.58953
H     -2.25881   -0.60933    5.60845
H     -1.92495   -2.61864    4.18294
H     -1.55217   -2.36053    1.73850
