26
symmetry c1
Ni     0.83790    0.00638    0.00502
C      1.33771   -0.17195    1.73111
C      1.36973   -1.38813   -1.01138
C      1.33687    1.59507   -0.69356
O      1.65844   -0.28514    2.82425
O      1.71096   -2.27106   -1.65533
O      1.65702    2.60141   -1.13565
P     -1.40189   -0.01602   -0.01066
C     -2.16339   -1.26722   -1.10770
C     -1.65889   -0.17054    1.79460
C     -2.20030    1.41070   -0.85482
H     -1.50224    2.10734   -1.31829
C     -3.50860    1.67403   -0.95591
H     -4.27378    1.03534   -0.52510
H     -3.85957    2.55454   -1.48357
O     -2.92512   -2.11584   -0.66734
C     -1.82103   -1.22301   -2.59243
H     -2.10686   -0.25498   -3.02374
H     -0.73928   -1.33561   -2.74056
H     -2.35129   -2.02839   -3.10498
H     -1.14455   -1.05229    2.19340
H     -1.26484    0.70934    2.32146
C     -3.15647   -0.28363    2.13527
H     -3.33176    0.11945    3.11082
H     -3.72835    0.26354    1.41524
H     -3.44983   -1.31246    2.11646
