47
symmetry c1
Ni     0.83790    0.00638    0.00502
C      1.33771   -0.17195    1.73111
C      1.36973   -1.38813   -1.01138
C      1.33687    1.59507   -0.69356
O      1.65844   -0.28514    2.82425
O      1.71096   -2.27106   -1.65533
O      1.65702    2.60141   -1.13565
P     -1.40189   -0.01602   -0.01066
C     -2.13808   -1.24585   -1.14839
C     -1.67628   -0.20600    1.78865
C     -2.20030    1.41070   -0.85482
H     -1.50224    2.10734   -1.31829
C     -3.50860    1.67403   -0.95591
H     -4.27378    1.03534   -0.52510
H     -3.85957    2.55454   -1.48357
H     -3.09879   -0.98637   -1.25346
C     -2.14381   -2.65421   -0.56490
H     -2.55354   -2.64336    0.33589
H     -1.21415   -2.98633   -0.47887
C     -2.94332   -3.57894   -1.48782
H     -2.93152   -4.49964   -1.12424
H     -3.88397   -3.27510   -1.52522
C     -2.35241   -3.57886   -2.88978
H     -2.89509   -4.16222   -3.47652
H     -1.43342   -3.94499   -2.86055
C     -2.31964   -2.16563   -3.46443
H     -3.24463   -1.83243   -3.57062
H     -1.89617   -2.18377   -4.35953
C     -1.53886   -1.21642   -2.55028
H     -0.58875   -1.49308   -2.51403
H     -1.57822   -0.29593   -2.91128
H     -0.96860   -0.83509    2.11230
C     -3.00980   -0.87062    2.11112
H     -3.09815   -1.71306    1.59934
H     -3.75542   -0.27114    1.85294
C     -3.07574   -1.16597    3.61263
H     -3.94915   -1.57791    3.83051
H     -2.36373   -1.80880    3.85418
C     -2.90193    0.11252    4.41878
H     -2.92361   -0.10103    5.38470
H     -3.65152    0.72908    4.22533
C     -1.58035    0.79419    4.07631
H     -0.82952    0.21036    4.34704
H     -1.50641    1.64236    4.58226
C     -1.48262    1.08560    2.57570
H     -2.17671    1.74266    2.31667
H     -0.59696    1.47449    2.36705
