41
symmetry c1
Ni     0.83790    0.00638    0.00502
C      1.33771   -0.17195    1.73111
C      1.36973   -1.38813   -1.01138
C      1.33687    1.59507   -0.69356
O      1.65844   -0.28514    2.82425
O      1.71096   -2.27106   -1.65533
O      1.65702    2.60141   -1.13565
P     -1.40189   -0.01602   -0.01066
C     -2.13808   -1.24585   -1.14839
C     -1.67628   -0.20600    1.78865
C     -2.20030    1.41070   -0.85482
H     -1.50224    2.10734   -1.31829
C     -3.50860    1.67403   -0.95591
H     -4.27378    1.03534   -0.52510
H     -3.85957    2.55454   -1.48357
C     -3.09042   -2.15449   -0.67495
C     -1.74848   -1.27728   -2.49150
C     -3.26356   -3.12599   -2.88773
C     -2.31122   -2.21735   -3.36117
C     -3.65316   -3.09456   -1.54462
H     -4.39341   -3.80084   -1.17661
H     -3.70097   -3.85670   -3.56371
H     -2.00838   -2.24178   -4.40516
F     -3.46642   -2.12416    0.62128
F     -0.82938   -0.40036   -2.94842
H     -1.01172    0.39400    2.23550
C     -1.36988   -1.61531    2.28258
H     -0.46731   -1.88818    1.98206
H     -2.02812   -2.25378    1.90701
C     -1.43682   -1.63885    3.81264
H     -1.25996   -2.55721    4.13721
H     -0.73990   -1.04231    4.18275
C     -2.80555   -1.18388    4.29660
H     -2.82211   -1.18298    5.28594
H     -3.49537   -1.81903    3.98009
C     -3.12605    0.21556    3.77949
H     -2.48457    0.86280    4.16353
H     -4.03557    0.47498    4.07330
C     -3.04945    0.26963    2.25060
H     -3.75260   -0.30783    1.85984
H     -3.20400    1.19638    1.94011
