21
symmetry c1
Ni     0.83790    0.00638    0.00502
C      1.33771   -0.17195    1.73111
C      1.36973   -1.38813   -1.01138
C      1.33687    1.59507   -0.69356
O      1.65844   -0.28514    2.82425
O      1.71096   -2.27106   -1.65533
O      1.65702    2.60141   -1.13565
P     -1.40189   -0.01602   -0.01066
C     -2.13808   -1.24585   -1.14839
C     -1.67628   -0.20600    1.78865
C     -2.20030    1.41070   -0.85482
H     -1.50224    2.10734   -1.31829
C     -3.50860    1.67403   -0.95591
H     -4.27378    1.03534   -0.52510
H     -3.85957    2.55454   -1.48357
Cl    -2.16789   -2.83839   -0.39970
H     -3.14852   -0.93771   -1.43011
H     -1.54361   -1.28388   -2.06684
Cl    -3.39791   -0.19910    2.15412
H     -1.21490   -1.13199    2.14218
H     -1.18691    0.62035    2.31404
