23
symmetry c1
Ni     0.83790    0.00638    0.00502
C      1.33771   -0.17195    1.73111
C      1.36973   -1.38813   -1.01138
C      1.33687    1.59507   -0.69356
O      1.65844   -0.28514    2.82425
O      1.71096   -2.27106   -1.65533
O      1.65702    2.60141   -1.13565
P     -1.40189   -0.01602   -0.01066
C     -2.15301   -1.26247   -1.12019
C     -1.68165   -0.12393    1.79460
C     -2.20030    1.41070   -0.85482
H     -1.50224    2.10734   -1.31829
C     -3.50860    1.67403   -0.95591
H     -4.27378    1.03534   -0.52510
H     -3.85957    2.55454   -1.48357
O     -2.03299   -1.28830   -2.33085
H     -2.75881   -2.03646   -0.58810
O     -1.84890    0.83355    2.52543
O     -1.68272   -1.41212    2.24048
C     -1.89962   -1.56483    3.66362
H     -1.87029   -2.64116    3.84512
H     -2.87111   -1.14610    3.94632
H     -1.11188   -1.05123    4.22463
