21
symmetry c1
Ni     0.83790    0.00638    0.00502
C      1.33771   -0.17195    1.73111
C      1.36973   -1.38813   -1.01138
C      1.33687    1.59507   -0.69356
O      1.65844   -0.28514    2.82425
O      1.71096   -2.27106   -1.65533
O      1.65702    2.60141   -1.13565
P     -1.40189   -0.01602   -0.01066
Br    -2.29095   -1.50122   -1.38464
C     -1.66205   -0.16911    1.79427
C     -2.20030    1.41070   -0.85482
H     -1.50224    2.10734   -1.31829
C     -3.50860    1.67403   -0.95591
H     -4.27378    1.03534   -0.52510
H     -3.85957    2.55454   -1.48357
H     -1.07794   -0.99838    2.20925
H     -1.34987    0.74793    2.31257
C     -3.14765   -0.40587    2.12371
H     -3.36618   -0.00697    3.09223
H     -3.75734    0.08107    1.39155
H     -3.35163   -1.45622    2.11626
