27
symmetry c1
Ni     0.83790    0.00638    0.00502
C      1.33771   -0.17195    1.73111
C      1.36973   -1.38813   -1.01138
C      1.33687    1.59507   -0.69356
O      1.65844   -0.28514    2.82425
O      1.71096   -2.27106   -1.65533
O      1.65702    2.60141   -1.13565
P     -1.40189   -0.01602   -0.01066
C     -2.13808   -1.24585   -1.14839
N     -1.60949   -0.19235    1.74837
C     -2.20030    1.41070   -0.85482
H     -1.50224    2.10734   -1.31829
C     -3.50860    1.67403   -0.95591
H     -4.27378    1.03534   -0.52510
H     -3.85957    2.55454   -1.48357
N     -3.14789   -1.99548   -0.61265
O     -1.75777   -1.39711   -2.32216
H     -3.60556   -2.68514   -1.15527
H     -3.44066   -1.86544    0.32009
C     -2.17401    0.91909    2.50301
H     -2.22005    0.64488    3.56024
H     -1.53563    1.80650    2.41453
H     -3.18842    1.19149    2.16228
C     -1.79094   -1.52767    2.30284
H     -0.91567   -2.15350    2.09048
H     -1.89175   -1.45180    3.38871
H     -2.68290   -2.03752    1.89813
