29
symmetry c1
Ni     0.83790    0.00638    0.00502
C      1.33771   -0.17195    1.73111
C      1.36973   -1.38813   -1.01138
C      1.33687    1.59507   -0.69356
O      1.65844   -0.28514    2.82425
O      1.71096   -2.27106   -1.65533
O      1.65702    2.60141   -1.13565
P     -1.40189   -0.01602   -0.01066
C     -2.13808   -1.24585   -1.14839
S     -1.72154   -0.37302    2.05447
C     -2.20030    1.41070   -0.85482
H     -1.50224    2.10734   -1.31829
C     -3.50860    1.67403   -0.95591
H     -4.27378    1.03534   -0.52510
H     -3.85957    2.55454   -1.48357
C     -3.16483   -2.08462   -0.70233
C     -1.67407   -1.34715   -2.46412
C     -3.26356   -3.12599   -2.88773
C     -2.23680   -2.28722   -3.33379
C     -3.72757   -3.02468   -1.57199
H     -3.52551   -2.00588    0.32039
H     -3.70097   -3.85670   -3.56371
H     -0.87598   -0.69518   -2.81085
F     -4.71848   -3.83417   -1.14150
F     -1.78899   -2.38499   -4.60360
C     -1.77061    1.30797    2.76738
H     -0.82104    1.82943    2.60846
H     -2.59602    1.88972    2.34414
H     -1.93506    1.16891    3.83996
