22
symmetry c1
Ni     0.83790    0.00638    0.00502
C      1.33771   -0.17195    1.73111
C      1.36973   -1.38813   -1.01138
C      1.33687    1.59507   -0.69356
O      1.65844   -0.28514    2.82425
O      1.71096   -2.27106   -1.65533
O      1.65702    2.60141   -1.13565
P     -1.40189   -0.01602   -0.01066
S     -2.32040   -1.49534   -1.21993
Si    -1.76890   -0.24081    2.12643
C     -2.20030    1.41070   -0.85482
H     -1.50224    2.10734   -1.31829
C     -3.50860    1.67403   -0.95591
H     -4.27378    1.03534   -0.52510
H     -3.85957    2.55454   -1.48357
C     -1.68229   -1.12567   -2.89102
H     -1.98273   -0.12316   -3.21285
H     -0.59213   -1.22198   -2.92491
H     -2.13480   -1.87138   -3.55129
H     -3.23132   -0.25172    2.42847
H     -1.15150    0.89737    2.86622
H     -1.18770   -1.52791    2.60555
