46
symmetry c1
Ni     0.83790    0.00638    0.00502
C      1.33771   -0.17195    1.73111
C      1.36973   -1.38813   -1.01138
C      1.33687    1.59507   -0.69356
O      1.65844   -0.28514    2.82425
O      1.71096   -2.27106   -1.65533
O      1.65702    2.60141   -1.13565
P     -1.40189   -0.01602   -0.01066
C     -2.13808   -1.24585   -1.14839
C     -2.19597    1.40293   -0.85025
C     -2.14643   -0.33994    1.64050
H     -2.07876    0.59578    2.21112
H     -1.62289   -1.16230    2.10528
C     -3.62711   -0.75524    1.55853
C     -3.99053   -2.08782    1.30064
C     -4.65305    0.18764    1.73950
C     -5.33060   -2.46401    1.22639
C     -5.99330   -0.18794    1.66537
C     -6.33849   -1.51574    1.40843
H     -3.21455   -2.83336    1.15750
H     -4.39561    1.22304    1.93985
H     -5.58767   -3.50022    1.02589
H     -6.76940    0.55847    1.80868
H     -7.38265   -1.80861    1.35063
F     -1.58492   -1.08294   -2.52228
H     -1.95015   -2.25751   -0.77889
H     -3.22362   -1.10639   -1.17160
C     -1.78623    2.70431   -0.55872
C     -3.21090    1.18347   -1.78154
C     -2.39087    3.78590   -1.19888
C     -3.81652    2.26532   -2.42125
C     -3.40660    3.56640   -2.13019
H     -2.06753    4.81166   -0.96961
H     -4.61700    2.09201   -3.15518
C     -0.66488    2.94609    0.46876
H      0.21654    2.42103    0.16495
H     -0.97811    2.59174    1.42856
H     -0.45396    3.99350    0.52668
C     -4.07408    4.76087   -2.83680
H     -3.33734    5.30536   -3.38966
H     -4.51933    5.40387   -2.10659
H     -4.82935    4.40332   -3.50511
C     -3.66352   -0.25291   -2.10331
H     -4.06924   -0.70481   -1.22236
H     -2.82454   -0.82361   -2.44288
H     -4.41128   -0.22832   -2.86827
