31
symmetry c1
Ni     0.83790    0.00638    0.00502
C      1.33771   -0.17195    1.73111
C      1.36973   -1.38813   -1.01138
C      1.33687    1.59507   -0.69356
O      1.65844   -0.28514    2.82425
O      1.71096   -2.27106   -1.65533
O      1.65702    2.60141   -1.13565
P     -1.40189   -0.01602   -0.01066
C     -2.13808   -1.24585   -1.14839
S     -2.19924    1.69179   -0.98124
C     -2.14643   -0.33994    1.64050
H     -2.07876    0.59578    2.21112
H     -1.62289   -1.16230    2.10528
C     -3.62711   -0.75524    1.55853
C     -3.99053   -2.08782    1.30064
C     -4.65305    0.18764    1.73950
C     -5.33060   -2.46401    1.22639
C     -5.99330   -0.18794    1.66537
C     -6.33849   -1.51574    1.40843
H     -3.21455   -2.83336    1.15750
H     -4.39561    1.22304    1.93985
H     -5.58767   -3.50022    1.02589
H     -6.76940    0.55847    1.80868
H     -7.38265   -1.80861    1.35063
Cl    -1.82864   -0.79999   -2.82263
H     -1.73463   -2.23985   -0.93744
H     -3.21801   -1.29159   -0.97505
C     -3.95531    1.25276   -1.22582
H     -4.05336    0.36674   -1.86161
H     -4.45535    1.08578   -0.26616
H     -4.40749    2.11332   -1.72759
