51
symmetry c1
Ni     0.83790    0.00638    0.00502
C      1.33771   -0.17195    1.73111
C      1.36973   -1.38813   -1.01138
C      1.33687    1.59507   -0.69356
O      1.65844   -0.28514    2.82425
O      1.71096   -2.27106   -1.65533
O      1.65702    2.60141   -1.13565
P     -1.40189   -0.01602   -0.01066
C     -2.13806   -1.24586   -1.14839
N     -2.19733    1.32581   -0.86808
C     -2.14643   -0.33994    1.64050
H     -2.07876    0.59578    2.21112
H     -1.62289   -1.16230    2.10528
C     -3.62711   -0.75524    1.55853
C     -3.99053   -2.08782    1.30064
C     -4.65305    0.18764    1.73950
C     -5.33060   -2.46401    1.22639
C     -5.99330   -0.18794    1.66537
C     -6.33849   -1.51574    1.40843
H     -3.21455   -2.83336    1.15750
H     -4.39561    1.22304    1.93985
H     -5.58767   -3.50022    1.02589
H     -6.76940    0.55847    1.80868
H     -7.38265   -1.80861    1.35063
C     -2.92957   -0.82208   -2.21628
C     -1.90799   -2.60691   -0.94793
C     -3.49030   -1.75915   -3.08386
C     -2.46962   -3.54445   -1.81511
C     -3.26057   -3.12081   -2.88304
H     -4.11367   -1.42516   -3.92597
H     -2.28839   -4.61752   -1.65657
C     -3.18244    0.68078   -2.43785
H     -2.24642    1.18784   -2.54579
H     -3.71025    1.08132   -1.59768
H     -3.76634    0.81736   -3.32402
C     -3.87991   -4.15525   -3.84114
H     -3.52056   -3.98184   -4.83396
H     -4.94573   -4.06191   -3.82621
H     -3.60378   -5.14073   -3.52893
C     -1.03455   -3.07495    0.23090
H     -1.49711   -2.78999    1.15271
H     -0.06830   -2.62060    0.16130
H     -0.93136   -4.13944    0.19773
C     -3.40899    1.90165   -0.29911
H     -3.76588    2.70011   -0.95497
H     -4.19933    1.14414   -0.23279
H     -3.24736    2.31741    0.71101
C     -1.39027    2.19132   -1.71836
H     -0.93204    1.61293   -2.52975
H     -2.03600    2.94830   -2.17119
H     -0.58323    2.69972   -1.16199
