44
symmetry c1
Ni     0.83790    0.00638    0.00502
C      1.33771   -0.17195    1.73111
C      1.36973   -1.38813   -1.01138
C      1.33687    1.59507   -0.69356
O      1.65844   -0.28514    2.82425
O      1.71096   -2.27106   -1.65533
O      1.65702    2.60141   -1.13565
P     -1.40189   -0.01602   -0.01066
C     -2.13808   -1.24585   -1.14839
S     -2.19924    1.69179   -0.98124
C     -2.14643   -0.33994    1.64050
H     -2.07876    0.59578    2.21112
H     -1.62289   -1.16230    2.10528
C     -3.62711   -0.75524    1.55853
C     -3.99053   -2.08782    1.30064
C     -4.65305    0.18764    1.73950
C     -5.33060   -2.46401    1.22639
C     -5.99330   -0.18794    1.66537
C     -6.33849   -1.51574    1.40843
H     -3.21455   -2.83336    1.15750
H     -4.39561    1.22304    1.93985
H     -5.58767   -3.50022    1.02589
H     -6.76940    0.55847    1.80868
H     -7.38265   -1.80861    1.35063
H     -3.11725   -1.26271   -0.94280
C     -1.62960   -2.65987   -0.89152
H     -1.73278   -2.88550    0.06653
H     -0.66764   -2.71837   -1.12216
C     -2.43052   -3.64662   -1.74647
H     -2.08928   -4.56420   -1.59944
H     -3.38094   -3.62447   -1.47305
C     -2.31708   -3.29284   -3.22181
H     -2.85903   -3.92578   -3.75544
H     -1.37434   -3.37925   -3.51031
C     -2.79908   -1.86757   -3.47638
H     -3.76318   -1.80406   -3.26574
H     -2.67975   -1.64565   -4.43417
C     -2.02391   -0.86184   -2.61969
H     -1.07158   -0.85533   -2.89098
H     -2.38971    0.04725   -2.75716
C     -3.95531    1.25276   -1.22582
H     -4.05336    0.36674   -1.86161
H     -4.45535    1.08578   -0.26616
H     -4.40749    2.11332   -1.72759
