43
symmetry c1
Ni     0.83790    0.00638    0.00502
C      1.33771   -0.17195    1.73111
C      1.36973   -1.38813   -1.01138
C      1.33687    1.59507   -0.69356
O      1.65844   -0.28514    2.82425
O      1.71096   -2.27106   -1.65533
O      1.65702    2.60141   -1.13565
P     -1.40189   -0.01602   -0.01066
C     -2.13808   -1.24585   -1.14839
C     -2.19596    1.40295   -0.85023
C     -2.14643   -0.33994    1.64050
H     -2.07876    0.59578    2.21112
H     -1.62289   -1.16230    2.10528
C     -3.62711   -0.75524    1.55853
C     -3.99053   -2.08782    1.30064
C     -4.65305    0.18764    1.73950
C     -5.33060   -2.46401    1.22639
C     -5.99330   -0.18794    1.66537
C     -6.33849   -1.51574    1.40843
H     -3.21455   -2.83336    1.15750
H     -4.39561    1.22304    1.93985
H     -5.58767   -3.50022    1.02589
H     -6.76940    0.55847    1.80868
H     -7.38265   -1.80861    1.35063
Cl    -1.82864   -0.79999   -2.82263
H     -1.73463   -2.23985   -0.93744
H     -3.21801   -1.29159   -0.97505
H     -1.80307    1.43643   -1.76993
C     -1.85304    2.73705   -0.19713
H     -0.87163    2.82294   -0.10291
H     -2.25664    2.78254    0.70675
C     -2.39293    3.87713   -1.06595
H     -2.19169    4.74522   -0.63474
H     -1.94508    3.86065   -1.94782
C     -3.89624    3.74082   -1.25605
H     -4.22270    4.47128   -1.83823
H     -4.34850    3.82338   -0.37964
C     -4.24363    2.39398   -1.88364
H     -3.85971    2.34661   -2.79373
H     -5.22742    2.31094   -1.96172
C     -3.69960    1.23614   -1.04117
H     -4.14967    1.22391   -0.15920
H     -3.88561    0.37620   -1.49401
