46
symmetry c1
Ni     0.83790    0.00638    0.00502
C      1.33771   -0.17195    1.73111
C      1.36973   -1.38813   -1.01138
C      1.33687    1.59507   -0.69356
O      1.65844   -0.28514    2.82425
O      1.71096   -2.27106   -1.65533
O      1.65702    2.60141   -1.13565
P     -1.40189   -0.01602   -0.01066
C     -2.13808   -1.24585   -1.14839
C     -2.19595    1.40294   -0.85025
C     -2.14643   -0.33994    1.64050
H     -2.07876    0.59578    2.21112
H     -1.62289   -1.16230    2.10528
C     -3.62711   -0.75524    1.55853
C     -3.99053   -2.08782    1.30064
C     -4.65305    0.18764    1.73950
C     -5.33060   -2.46401    1.22639
C     -5.99330   -0.18794    1.66537
C     -6.33849   -1.51574    1.40843
H     -3.21455   -2.83336    1.15750
H     -4.39561    1.22304    1.93985
H     -5.58767   -3.50022    1.02589
H     -6.76940    0.55847    1.80868
H     -7.38265   -1.80861    1.35063
H     -1.98740   -2.27064   -0.74776
H     -1.65720   -1.17397   -2.14688
H     -3.22706   -1.05707   -1.25743
C     -2.76424    2.43038   -0.09667
C     -2.23316    1.45729   -2.24352
C     -3.36899    3.51222   -0.73631
C     -2.83892    2.53890   -2.88351
C     -3.40668    3.56636   -2.13018
H     -3.81640    4.32240   -0.14240
H     -2.86848    2.58127   -3.98205
C     -2.72198    2.37050    1.44158
H     -1.70581    2.29359    1.76774
H     -3.27093    1.51687    1.78050
H     -3.15984    3.25943    1.84529
C     -4.07458    4.76099   -2.83614
H     -3.57137    5.66444   -2.56143
H     -5.10143    4.82088   -2.54135
H     -4.01500    4.62768   -3.89613
C     -1.60616    0.32318   -3.07555
H     -2.12154   -0.59291   -2.87540
H     -0.57436    0.21666   -2.81297
H     -1.68693    0.55780   -4.11638
