33
symmetry c1
Ni     0.83790    0.00638    0.00502
C      1.33771   -0.17195    1.73111
C      1.36973   -1.38813   -1.01138
C      1.33687    1.59507   -0.69356
O      1.65844   -0.28514    2.82425
O      1.71096   -2.27106   -1.65533
O      1.65702    2.60141   -1.13565
P     -1.40189   -0.01602   -0.01066
C     -2.17547   -1.18867   -1.18341
C     -2.18609    1.42621   -0.81930
C     -2.14643   -0.33994    1.64050
H     -2.07876    0.59578    2.21112
H     -1.62289   -1.16230    2.10528
C     -3.62711   -0.75524    1.55853
C     -3.99053   -2.08782    1.30064
C     -4.65305    0.18764    1.73950
C     -5.33060   -2.46401    1.22639
C     -5.99330   -0.18794    1.66537
C     -6.33849   -1.51574    1.40843
H     -3.21455   -2.83336    1.15750
H     -4.39561    1.22304    1.93985
H     -5.58767   -3.50022    1.02589
H     -6.76940    0.55847    1.80868
H     -7.38265   -1.80861    1.35063
O     -2.94648   -0.88123   -2.07144
O     -1.79802   -2.48854   -0.96733
H     -2.26379   -3.01267   -1.63883
H     -3.25414    1.25095   -0.99145
H     -2.09456    2.32306   -0.19134
C     -1.51834    1.73632   -2.17190
H     -1.60349    2.78239   -2.38019
H     -0.48442    1.46401   -2.12999
H     -2.00314    1.17803   -2.94532
