36
symmetry c1
Ni     0.83790    0.00638    0.00502
C      1.33771   -0.17195    1.73111
C      1.36973   -1.38813   -1.01138
C      1.33687    1.59507   -0.69356
O      1.65844   -0.28514    2.82425
O      1.71096   -2.27106   -1.65533
O      1.65702    2.60141   -1.13565
P     -1.40189   -0.01602   -0.01066
C     -2.13808   -1.24585   -1.14839
C     -2.22504    1.39848   -0.82952
C     -2.14643   -0.33994    1.64050
H     -2.07876    0.59578    2.21112
H     -1.62289   -1.16230    2.10528
C     -3.62711   -0.75524    1.55853
C     -3.99053   -2.08782    1.30064
C     -4.65305    0.18764    1.73950
C     -5.33060   -2.46401    1.22639
C     -5.99330   -0.18794    1.66537
C     -6.33849   -1.51574    1.40843
H     -3.21455   -2.83336    1.15750
H     -4.39561    1.22304    1.93985
H     -5.58767   -3.50022    1.02589
H     -6.76940    0.55847    1.80868
H     -7.38265   -1.80861    1.35063
C     -1.81911   -2.60125   -1.01466
C     -3.01979   -0.83052   -2.15179
C     -3.26356   -3.12599   -2.88773
C     -3.58253   -1.77059   -3.02146
C     -2.38185   -3.54131   -1.88433
H     -2.13391   -4.59485   -1.78037
H     -3.70097   -3.85670   -3.56371
H     -4.26788   -1.44776   -3.80140
F     -0.96818   -3.00207   -0.04628
F     -3.32763    0.47756   -2.28086
O     -1.74228    2.07238   -1.72034
H     -3.25003    1.61408   -0.43957
