43
symmetry c1
Ni     0.83790    0.00638    0.00502
C      1.33771   -0.17195    1.73111
C      1.36973   -1.38813   -1.01138
C      1.33687    1.59507   -0.69356
O      1.65844   -0.28514    2.82425
O      1.71096   -2.27106   -1.65533
O      1.65702    2.60141   -1.13565
P     -1.40189   -0.01602   -0.01066
H     -1.95705   -0.94343   -0.86862
C     -2.19596    1.40294   -0.85025
C     -2.14643   -0.33994    1.64050
H     -2.07876    0.59578    2.21112
H     -1.62289   -1.16230    2.10528
C     -3.62711   -0.75524    1.55853
C     -3.99053   -2.08782    1.30064
C     -4.65305    0.18764    1.73950
C     -5.33060   -2.46401    1.22639
C     -5.99330   -0.18794    1.66537
C     -6.33849   -1.51574    1.40843
H     -3.21455   -2.83336    1.15750
H     -4.39561    1.22304    1.93985
H     -5.58767   -3.50022    1.02589
H     -6.76940    0.55847    1.80868
H     -7.38265   -1.80861    1.35063
C     -2.20082    2.65905   -0.24310
C     -2.79643    1.22871   -2.09710
C     -2.80545    3.74078   -0.88303
C     -3.40215    2.31044   -2.73691
C     -3.40664    3.56639   -2.13018
H     -2.80878    4.73102   -0.40481
H     -3.87588    2.17268   -3.71980
C     -1.53679    2.85119    1.13303
H     -0.51015    2.55470    1.07818
H     -2.04294    2.25121    1.86018
H     -1.59591    3.88116    1.41689
C     -4.07424    4.76099   -2.83646
H     -3.34541    5.52456   -3.01156
H     -4.85623    5.14942   -2.21799
H     -4.48493    4.43899   -3.77057
C     -2.79141   -0.15777   -2.76737
H     -3.33666   -0.84957   -2.15991
H     -1.78265   -0.49733   -2.87688
H     -3.25143   -0.08973   -3.73103
