37
symmetry c1
Ni     0.83790    0.00638    0.00502
C      1.33771   -0.17195    1.73111
C      1.36973   -1.38813   -1.01138
C      1.33687    1.59507   -0.69356
O      1.65844   -0.28514    2.82425
O      1.71096   -2.27106   -1.65533
O      1.65702    2.60141   -1.13565
P     -1.40189   -0.01602   -0.01066
C     -2.17547   -1.18867   -1.18341
C     -2.19596    1.40295   -0.85023
C     -2.14643   -0.33994    1.64050
H     -2.07876    0.59578    2.21112
H     -1.62289   -1.16230    2.10528
C     -3.62711   -0.75524    1.55853
C     -3.99053   -2.08782    1.30064
C     -4.65305    0.18764    1.73950
C     -5.33060   -2.46401    1.22639
C     -5.99330   -0.18794    1.66537
C     -6.33849   -1.51574    1.40843
H     -3.21455   -2.83336    1.15750
H     -4.39561    1.22304    1.93985
H     -5.58767   -3.50022    1.02589
H     -6.76940    0.55847    1.80868
H     -7.38265   -1.80861    1.35063
O     -2.94648   -0.88123   -2.07144
O     -1.79802   -2.48854   -0.96733
H     -2.26379   -3.01267   -1.63883
C     -3.11589    2.19882   -0.15955
C     -1.88302    1.69171   -2.18268
C     -3.40993    3.57222   -2.13375
C     -2.49001    2.77635   -2.82444
C     -3.72288    3.28346   -0.80131
H     -3.35914    1.97436    0.87615
H     -4.43793    3.90208   -0.26444
H     -3.88174    4.41531   -2.63259
H     -2.24676    3.00080   -3.86014
H     -1.16797    1.07308   -2.71954
