25
symmetry c1
Ni     0.83790    0.00638    0.00502
C      1.33771   -0.17195    1.73111
C      1.36973   -1.38813   -1.01138
C      1.33687    1.59507   -0.69356
O      1.65844   -0.28514    2.82425
O      1.71096   -2.27106   -1.65533
O      1.65702    2.60141   -1.13565
P     -1.40189   -0.01602   -0.01066
C     -2.16588   -1.28722   -1.08270
C     -2.20030    1.41070   -0.85482
H     -1.50224    2.10734   -1.31829
C     -3.50860    1.67403   -0.95591
H     -4.27378    1.03534   -0.52510
H     -3.85957    2.55454   -1.48357
C     -2.04642   -0.19578    1.70336
H     -1.33832    0.08614    2.48216
C     -3.25683   -0.62347    2.08174
H     -4.02371   -0.92449    1.37442
H     -3.52132   -0.68624    3.13199
O     -2.78226   -2.25331   -0.67579
O     -1.96763   -1.03229   -2.40706
C     -2.54917   -2.00391   -3.30898
H     -2.29916   -1.65123   -4.31168
H     -3.63421   -2.04967   -3.16889
H     -2.12263   -2.99544   -3.12466
