38
symmetry c1
Ni     0.83790    0.00638    0.00502
C      1.33771   -0.17195    1.73111
C      1.36973   -1.38813   -1.01138
C      1.33687    1.59507   -0.69356
O      1.65844   -0.28514    2.82425
O      1.71096   -2.27106   -1.65533
O      1.65702    2.60141   -1.13565
P     -1.40189   -0.01602   -0.01066
C     -2.13807   -1.24587   -1.14838
C     -2.20030    1.41070   -0.85482
H     -1.50224    2.10734   -1.31829
C     -3.50860    1.67403   -0.95591
H     -4.27378    1.03534   -0.52510
H     -3.85957    2.55454   -1.48357
C     -2.04642   -0.19578    1.70336
H     -1.33832    0.08614    2.48216
C     -3.25683   -0.62347    2.08174
H     -4.02371   -0.92449    1.37442
H     -3.52132   -0.68624    3.13199
C     -2.27443   -0.94765   -2.50446
C     -2.56297   -2.48133   -0.65986
C     -2.83496   -1.88501   -3.37187
C     -3.12459   -3.41870   -1.52723
C     -3.26052   -3.12081   -2.88308
H     -2.94189   -1.65027   -4.44086
H     -3.45989   -4.39256   -1.14170
C     -1.80419    0.41610   -3.04357
H     -0.76771    0.55179   -2.81508
H     -2.37543    1.19668   -2.58611
H     -1.94269    0.44737   -4.10411
C     -3.87946   -4.15556   -3.84110
H     -3.16647   -4.41402   -4.59591
H     -4.75095   -3.73895   -4.30136
H     -4.15101   -5.03264   -3.29166
C     -2.41279   -2.81063    0.83700
H     -3.00332   -2.12925    1.41310
H     -1.38509   -2.71998    1.12078
H     -2.74560   -3.81147    1.01716
