29
symmetry c1
Ni     0.83790    0.00638    0.00502
C      1.33771   -0.17195    1.73111
C      1.36973   -1.38813   -1.01138
C      1.33687    1.59507   -0.69356
O      1.65844   -0.28514    2.82425
O      1.71096   -2.27106   -1.65533
O      1.65702    2.60141   -1.13565
P     -1.40189   -0.01602   -0.01066
C     -2.13808   -1.24585   -1.14839
C     -2.20030    1.41070   -0.85482
H     -1.50224    2.10734   -1.31829
C     -3.50860    1.67403   -0.95591
H     -4.27378    1.03534   -0.52510
H     -3.85957    2.55454   -1.48357
C     -2.04642   -0.19578    1.70336
H     -1.33832    0.08614    2.48216
C     -3.25683   -0.62347    2.08174
H     -4.02371   -0.92449    1.37442
H     -3.52132   -0.68624    3.13199
C     -2.65435   -2.44411   -0.64405
C     -2.18455   -0.98766   -2.52240
C     -3.26356   -3.12599   -2.88773
C     -2.74729   -1.92773   -3.39207
C     -3.21709   -3.38418   -1.51372
H     -3.61838   -4.31558   -1.12170
H     -3.70097   -3.85670   -3.56371
H     -2.78341   -1.72703   -4.46008
F     -2.60950   -2.69329    0.68200
F     -1.68630    0.16878   -3.00914
