41
symmetry c1
Ni     0.83790    0.00638    0.00502
C      1.33771   -0.17195    1.73111
C      1.36973   -1.38813   -1.01138
C      1.33687    1.59507   -0.69356
O      1.65844   -0.28514    2.82425
O      1.71096   -2.27106   -1.65533
O      1.65702    2.60141   -1.13565
P     -1.40189   -0.01602   -0.01066
C     -2.19596    1.40295   -0.85023
C     -2.14643   -0.33994    1.64050
H     -2.07876    0.59578    2.21112
H     -1.62289   -1.16230    2.10528
C     -3.62711   -0.75524    1.55853
C     -3.99053   -2.08782    1.30064
C     -4.65305    0.18764    1.73950
C     -5.33060   -2.46401    1.22639
C     -5.99330   -0.18794    1.66537
C     -6.33849   -1.51574    1.40843
H     -3.21455   -2.83336    1.15750
H     -4.39561    1.22304    1.93985
H     -5.58767   -3.50022    1.02589
H     -6.76940    0.55847    1.80868
H     -7.38265   -1.80861    1.35063
C     -1.61953   -1.40258   -1.20049
H     -0.73777   -1.52138   -1.84040
H     -1.78013   -2.35356   -0.67995
C     -2.83186   -1.16690   -2.12045
C     -2.66144   -0.94258   -3.49702
C     -4.13982   -1.17009   -1.60709
C     -3.75851   -0.72925   -4.32993
C     -5.23730   -0.95681   -2.43949
C     -5.05183   -0.73535   -3.80505
H     -1.65983   -0.93580   -3.91559
H     -4.29531   -1.34136   -0.54645
H     -3.60239   -0.55791   -5.39119
H     -6.23935   -0.96370   -2.02015
H     -5.90676   -0.56915   -4.45380
N     -1.55060    1.84482   -1.97136
O     -3.24357    1.93314   -0.44200
H     -1.90836    2.60757   -2.49074
H     -0.72017    1.41522   -2.28513
