48
symmetry c1
Ni     0.83790    0.00638    0.00502
C      1.33771   -0.17195    1.73111
C      1.36973   -1.38813   -1.01138
C      1.33687    1.59507   -0.69356
O      1.65844   -0.28514    2.82425
O      1.71096   -2.27106   -1.65533
O      1.65702    2.60141   -1.13565
P     -1.40189   -0.01602   -0.01066
C     -2.19595    1.40294   -0.85025
C     -2.14643   -0.33994    1.64050
H     -2.07876    0.59578    2.21112
C     -1.36579   -1.41319    2.42180
C     -3.63806   -0.70834    1.53545
H     -4.20229    0.06932    1.01169
H     -3.77797   -1.64705    0.98837
H     -4.07603   -0.83639    2.53138
H     -1.40617   -2.38277    1.91355
H     -1.78811   -1.54609    3.42383
H     -0.31229   -1.13734    2.52906
C     -2.06617   -1.54710   -0.78534
H     -2.21385   -2.31271   -0.01427
C     -3.39420   -1.31522   -1.52767
H     -3.27260   -0.57702   -2.32691
H     -4.16390   -0.93977   -0.84569
H     -3.76106   -2.24454   -1.97601
C     -1.02872   -2.11564   -1.77127
H     -0.85434   -3.18324   -1.59540
H     -1.36085   -2.00209   -2.80949
H     -0.06455   -1.60352   -1.67529
C     -2.85524    2.37731   -0.10031
C     -2.14218    1.51034   -2.23990
C     -3.46002    3.45915   -0.73990
C     -2.74795    2.59194   -2.87991
C     -3.40669    3.56635   -2.13018
H     -3.97916    4.22753   -0.14881
H     -2.70575    2.67614   -3.97563
C     -2.91343    2.25890    1.43403
H     -1.91901    2.20866    1.82585
H     -3.44810    1.37203    1.70329
H     -3.41359    3.11372    1.83902
C     -4.07465    4.76097   -2.83610
H     -3.62863    5.67177   -2.49489
H     -5.12049    4.76948   -2.61019
H     -3.93892    4.67170   -3.89369
C     -1.41472    0.43482   -3.06793
H     -1.90408   -0.50767   -2.93701
H     -0.39926    0.35811   -2.73951
H     -1.43537    0.70673   -4.10260
