29
symmetry c1
Ni     0.81394   -0.00654   -0.19363
C      1.11726    0.35478    1.54797
C      1.45843   -1.62086   -0.68545
C      1.37470    1.31945   -1.28127
O      1.30753    0.58859    2.65342
O      1.86891   -2.64361   -0.99685
O      1.72802    2.16488   -1.96926
P     -1.40545   -0.07218   -0.41834
C     -2.11620   -0.36681   -2.07873
C     -2.48148    1.35080    0.06674
C     -2.31172   -1.31172    0.57722
H     -3.35802    1.46954   -0.58586
H     -2.81464    1.19731    1.10379
C     -1.63499    2.63671    0.02825
H     -0.89643    2.65263    0.83780
H     -1.08951    2.72717   -0.91800
H     -2.26104    3.52989    0.13502
O     -2.16303    0.46298   -2.96647
O     -2.59531   -1.63548   -2.21720
C     -3.17190   -1.93186   -3.51158
H     -3.49974   -2.97153   -3.44910
H     -2.42190   -1.80414   -4.29913
H     -4.01759   -1.26566   -3.71163
O     -1.95029   -1.72245    1.66327
O     -3.45328   -1.73261   -0.03755
C     -4.21691   -2.71592    0.70114
H     -5.08313   -2.93744    0.07433
H     -4.52739   -2.30674    1.66821
H     -3.61507   -3.61502    0.86982
