37
symmetry c1
Ni     0.81394   -0.00654   -0.19363
C      1.11726    0.35478    1.54797
C      1.45843   -1.62086   -0.68545
C      1.37470    1.31945   -1.28127
O      1.30753    0.58859    2.65342
O      1.86891   -2.64361   -0.99685
O      1.72802    2.16488   -1.96926
P     -1.40545   -0.07218   -0.41834
C     -2.13369   -0.44398   -2.05551
C     -2.48148    1.35080    0.06674
C     -2.36869   -1.31512    0.51770
H     -3.35802    1.46954   -0.58586
H     -2.81464    1.19731    1.10379
C     -1.63499    2.63671    0.02825
H     -0.89643    2.65263    0.83780
H     -1.08951    2.72717   -0.91800
H     -2.26104    3.52989    0.13502
N     -2.53799   -1.73857   -2.22656
O     -2.25744    0.40795   -2.95224
H     -2.94440   -2.03062   -3.08042
H     -2.43463   -2.40500   -1.50697
H     -2.10558   -2.20660    0.14707
C     -3.87010   -1.18921    0.28554
H     -4.06065   -1.18026   -0.68555
H     -4.20039   -0.33967    0.67434
C     -4.58305   -2.37443    0.94361
H     -5.56048   -2.28557    0.81424
H     -4.29106   -3.21576    0.51298
C     -4.27055   -2.42928    2.43156
H     -4.71985   -3.21350    2.83431
H     -4.62185   -1.61600    2.87271
C     -2.76594   -2.52665    2.66651
H     -2.43015   -3.38034    2.29726
H     -2.58356   -2.52137    3.63994
C     -2.02745   -1.36004    2.00321
H     -2.29253   -0.50845    2.43342
H     -1.05115   -1.47275    2.11858
