40
symmetry c1
Ni     0.81394   -0.00654   -0.19363
C      1.11726    0.35478    1.54797
C      1.45843   -1.62086   -0.68545
C      1.37470    1.31945   -1.28127
O      1.30753    0.58859    2.65342
O      1.86891   -2.64361   -0.99685
O      1.72802    2.16488   -1.96926
P     -1.40545   -0.07218   -0.41834
C     -2.13369   -0.44396   -2.05551
C     -2.48148    1.35080    0.06674
S     -2.42510   -1.50543    0.76509
H     -3.35802    1.46954   -0.58586
H     -2.81464    1.19731    1.10379
C     -1.63499    2.63671    0.02825
H     -0.89643    2.65263    0.83780
H     -1.08951    2.72717   -0.91800
H     -2.26104    3.52989    0.13502
C     -3.16810   -1.37386   -2.16390
C     -1.65458    0.20221   -3.19502
C     -3.72368   -1.65697   -3.41146
C     -2.20955   -0.08161   -4.44316
C     -3.24404   -1.01092   -4.55154
H     -4.53944   -2.38946   -3.49688
H     -1.83132    0.42772   -5.34150
C     -3.69749   -2.08625   -0.90538
H     -4.03004   -1.35729   -0.19621
H     -2.91511   -2.67397   -0.47252
H     -4.51513   -2.72244   -1.17300
C     -3.85765   -1.32381   -5.92892
H     -4.89934   -1.07950   -5.91913
H     -3.73750   -2.36492   -6.14472
H     -3.36246   -0.74443   -6.67991
C     -0.51262    1.22850   -3.07567
H      0.36740    0.74196   -2.70997
H     -0.79963    2.00409   -2.39670
H     -0.31220    1.65253   -4.03740
C     -3.89252   -1.91343   -0.24316
H     -4.51792   -1.02879   -0.40173
H     -3.59950   -2.34582   -1.20547
H     -4.45076   -2.65560    0.33508
