28
symmetry c1
Ni     0.81394   -0.00654   -0.19363
C      1.11726    0.35478    1.54797
C      1.45843   -1.62086   -0.68545
C      1.37470    1.31945   -1.28127
O      1.30753    0.58859    2.65342
O      1.86891   -2.64361   -0.99685
O      1.72802    2.16488   -1.96926
P     -1.40545   -0.07218   -0.41834
C     -2.12273   -0.39496   -2.07067
C     -2.48148    1.35080    0.06674
C     -2.34803   -1.34413    0.49960
H     -3.35802    1.46954   -0.58586
H     -2.81464    1.19731    1.10379
C     -1.63499    2.63671    0.02825
H     -0.89643    2.65263    0.83780
H     -1.08951    2.72717   -0.91800
H     -2.26104    3.52989    0.13502
O     -2.14664    0.47299   -2.93113
C     -2.69241   -1.78158   -2.34701
H     -1.91694   -2.54779   -2.21903
H     -3.49671   -2.01467   -1.63738
H     -3.07850   -1.81169   -3.36805
H     -3.41919   -1.28031    0.27683
H     -2.01195   -2.35320    0.22418
C     -2.15576   -1.18943    2.01970
H     -2.25794   -2.14452    2.49115
H     -1.18043   -0.79646    2.21768
H     -2.89534   -0.51983    2.40643
