39
symmetry c1
Ni     0.81394   -0.00654   -0.19363
C      1.11726    0.35478    1.54797
C      1.45843   -1.62086   -0.68545
C      1.37470    1.31945   -1.28127
O      1.30753    0.58859    2.65342
O      1.86891   -2.64361   -0.99685
O      1.72802    2.16488   -1.96926
P     -1.40545   -0.07218   -0.41834
C     -2.11746   -0.37216   -2.07724
C     -2.48148    1.35080    0.06674
C     -2.36868   -1.31512    0.51772
H     -3.35802    1.46954   -0.58586
H     -2.81464    1.19731    1.10379
C     -1.63499    2.63671    0.02825
H     -0.89643    2.65263    0.83780
H     -1.08951    2.72717   -0.91800
H     -2.26104    3.52989    0.13502
O     -2.17042    0.44801   -2.97282
O     -2.60282   -1.64506   -2.22882
H     -2.95060   -1.68776   -3.13425
C     -3.13315   -2.26271   -0.16355
C     -2.33869   -1.31511    1.91222
C     -3.86691   -3.21047    0.54960
C     -3.07339   -2.26247    2.62576
C     -3.83733   -3.21016    1.94472
H     -4.46900   -3.95779    0.01268
H     -3.04988   -2.26197    3.72527
C     -3.16511   -2.26302   -1.70322
H     -2.16879   -2.36205   -2.08062
H     -3.58870   -1.34418   -2.05135
H     -3.76005   -3.08306   -2.04745
C     -4.64770   -4.25673    2.73186
H     -4.31030   -5.23831    2.47193
H     -5.68541   -4.16042    2.48938
H     -4.51045   -4.09862    3.78117
C     -1.49512   -0.26909    2.66444
H     -1.86818    0.71069    2.45053
H     -0.47525   -0.33926    2.34848
H     -1.55582   -0.45193    3.71695
