27
symmetry c1
Ni     0.81394   -0.00654   -0.19363
C      1.11726    0.35478    1.54797
C      1.45843   -1.62086   -0.68545
C      1.37470    1.31945   -1.28127
O      1.30753    0.58859    2.65342
O      1.86891   -2.64361   -0.99685
O      1.72802    2.16488   -1.96926
P     -1.40545   -0.07218   -0.41834
N     -2.05920   -0.45181   -2.02982
C     -2.48148    1.35080    0.06674
N     -2.34237   -1.28116    0.49212
H     -3.35802    1.46954   -0.58586
H     -2.81464    1.19731    1.10379
C     -1.63499    2.63671    0.02825
H     -0.89643    2.65263    0.83780
H     -1.08951    2.72717   -0.91800
H     -2.26104    3.52989    0.13502
C     -2.83859   -1.67107   -2.20125
H     -3.14986   -1.75090   -3.24614
H     -2.22974   -2.55212   -1.96477
H     -3.73742   -1.69374   -1.56022
C     -2.33378    0.64329   -2.95112
H     -1.41273    1.19364   -3.17835
H     -2.71724    0.23233   -3.88874
H     -3.07125    1.36055   -2.54985
O     -1.90238   -1.64015    1.58315
O     -3.38271   -1.69685   -0.01550
