25
symmetry c1
Ni     0.81394   -0.00654   -0.19363
C      1.11726    0.35478    1.54797
C      1.45843   -1.62086   -0.68545
C      1.37470    1.31945   -1.28127
O      1.30753    0.58859    2.65342
O      1.86891   -2.64361   -0.99685
O      1.72802    2.16488   -1.96926
P     -1.40545   -0.07218   -0.41834
C     -2.13369   -0.44398   -2.05551
C     -2.48148    1.35080    0.06674
S     -2.42510   -1.50543    0.76509
H     -3.35802    1.46954   -0.58586
H     -2.81464    1.19731    1.10379
C     -1.63499    2.63671    0.02825
H     -0.89643    2.65263    0.83780
H     -1.08951    2.72717   -0.91800
H     -2.26104    3.52989    0.13502
N     -2.53799   -1.73857   -2.22656
O     -2.25744    0.40795   -2.95224
H     -2.94440   -2.03062   -3.08042
H     -2.43463   -2.40500   -1.50697
C     -3.89252   -1.91343   -0.24316
H     -4.51792   -1.02879   -0.40173
H     -3.59950   -2.34582   -1.20547
H     -4.45076   -2.65560    0.33508
