43
symmetry c1
Ni     0.81394   -0.00654   -0.19363
C      1.11726    0.35478    1.54797
C      1.45843   -1.62086   -0.68545
C      1.37470    1.31945   -1.28127
O      1.30753    0.58859    2.65342
O      1.86891   -2.64361   -0.99685
O      1.72802    2.16488   -1.96926
P     -1.40545   -0.07218   -0.41834
C     -2.13369   -0.44398   -2.05551
C     -2.48148    1.35080    0.06674
C     -2.36869   -1.31512    0.51770
H     -3.35802    1.46954   -0.58586
H     -2.81464    1.19731    1.10379
C     -1.63499    2.63671    0.02825
H     -0.89643    2.65263    0.83780
H     -1.08951    2.72717   -0.91800
H     -2.26104    3.52989    0.13502
H     -3.12154   -0.32058   -1.95421
C     -1.93132   -1.89681   -2.47063
H     -2.23792   -2.49899   -1.74760
H     -0.96887   -2.06971   -2.63114
C     -2.72951   -2.17172   -3.74869
H     -2.58381   -3.10826   -4.03446
H     -3.69457   -2.05212   -3.56730
C     -2.30030   -1.22824   -4.86237
H     -2.84221   -1.40459   -5.67126
H     -1.35121   -1.39452   -5.08825
C     -2.47547    0.22700   -4.43794
H     -3.43563    0.41375   -4.29269
H     -2.15390    0.82207   -5.16135
C     -1.69925    0.52352   -3.15113
H     -0.72773    0.42718   -3.31680
H     -1.87189    1.45425   -2.86282
C     -2.33409   -1.31859    1.91610
C     -3.13958   -2.26174   -0.16520
C     -3.84127   -3.21530    1.94869
C     -3.87588   -3.21183    0.55029
C     -3.07038   -2.26868    2.63159
H     -1.73488   -0.58279    2.44691
H     -3.04348   -2.27138    3.71856
H     -4.41359   -3.95380    2.50484
H     -4.47509   -3.94763    0.01947
H     -3.16648   -2.25905   -1.25217
