31
symmetry c1
Ni     0.81394   -0.00654   -0.19363
C      1.11726    0.35478    1.54797
C      1.45843   -1.62086   -0.68545
C      1.37470    1.31945   -1.28127
O      1.30753    0.58859    2.65342
O      1.86891   -2.64361   -0.99685
O      1.72802    2.16488   -1.96926
P     -1.40545   -0.07218   -0.41834
C     -2.13369   -0.44398   -2.05551
C     -2.48148    1.35080    0.06674
S     -2.42510   -1.50543    0.76509
H     -3.35802    1.46954   -0.58586
H     -2.81464    1.19731    1.10379
C     -1.63499    2.63671    0.02825
H     -0.89643    2.65263    0.83780
H     -1.08951    2.72717   -0.91800
H     -2.26104    3.52989    0.13502
C     -1.65699    0.20825   -3.19747
C     -3.16706   -1.38041   -2.16498
C     -3.24702   -1.01238   -4.55837
C     -3.72372   -1.66461   -3.41641
C     -2.21365   -0.07595   -4.44890
H     -1.84311    0.43102   -5.33654
H     -3.67971   -1.23329   -5.53110
H     -4.52695   -2.39249   -3.50150
F     -0.65969    1.11198   -3.09182
F     -3.62712   -2.00987   -1.06288
C     -3.89252   -1.91343   -0.24316
H     -4.51792   -1.02879   -0.40173
H     -3.59950   -2.34582   -1.20547
H     -4.45076   -2.65560    0.33508
