44
symmetry c1
Ni     0.83790    0.00638    0.00502
C      1.33771   -0.17195    1.73111
C      1.36973   -1.38813   -1.01138
C      1.33687    1.59507   -0.69356
O      1.65844   -0.28514    2.82425
O      1.71096   -2.27106   -1.65533
O      1.65702    2.60141   -1.13565
P     -1.40189   -0.01602   -0.01066
C     -2.13808   -1.24585   -1.14839
N     -2.14612    1.40142   -0.78873
C     -2.14643   -0.33994    1.64050
H     -2.07876    0.59578    2.21112
C     -1.36579   -1.41319    2.42180
C     -3.63806   -0.70834    1.53545
H     -4.20229    0.06932    1.01169
H     -3.77797   -1.64705    0.98837
H     -4.07603   -0.83639    2.53138
H     -1.40617   -2.38277    1.91355
H     -1.78811   -1.54609    3.42383
H     -0.31229   -1.13734    2.52906
H     -2.92121   -0.79359   -1.57674
C     -2.70113   -2.45845   -0.41589
H     -3.31028   -2.16247    0.30573
H     -1.96256   -2.97623   -0.00552
C     -3.46374   -3.33889   -1.41054
H     -3.81284   -4.13904   -0.94375
H     -4.23325   -2.83516   -1.77477
C     -2.55389   -3.77234   -2.55026
H     -3.06911   -4.31961   -3.19378
H     -1.82016   -4.33173   -2.19225
C     -1.96683   -2.55969   -3.26676
H     -2.69552   -2.04622   -3.69484
H     -1.34860   -2.86466   -3.97784
C     -1.21213   -1.65342   -2.28932
H     -0.42578   -2.13386   -1.92684
H     -0.88916   -0.84639   -2.76214
C     -1.61661    1.85868   -2.06700
H     -2.17973    2.73752   -2.39195
H     -0.56540    2.15378   -1.96342
H     -1.67958    1.08588   -2.85322
C     -3.54311    1.70414   -0.50556
H     -3.68338    1.90359    0.56375
H     -3.83058    2.60511   -1.05388
H     -4.22203    0.88194   -0.79259
