46
symmetry c1
Ni     0.83790    0.00638    0.00502
C      1.33771   -0.17195    1.73111
C      1.36973   -1.38813   -1.01138
C      1.33687    1.59507   -0.69356
O      1.65844   -0.28514    2.82425
O      1.71096   -2.27106   -1.65533
O      1.65702    2.60141   -1.13565
P     -1.40189   -0.01602   -0.01066
C     -2.13808   -1.24585   -1.14839
C     -2.19596    1.40295   -0.85023
C     -2.14643   -0.33994    1.64050
H     -2.07876    0.59578    2.21112
C     -1.36579   -1.41319    2.42180
C     -3.63806   -0.70834    1.53545
H     -4.20229    0.06932    1.01169
H     -3.77797   -1.64705    0.98837
H     -4.07603   -0.83639    2.53138
H     -1.40617   -2.38277    1.91355
H     -1.78811   -1.54609    3.42383
H     -0.31229   -1.13734    2.52906
C     -1.33782   -1.88290   -2.10258
C     -3.50108   -1.54887   -1.06387
C     -3.26356   -3.12599   -2.88773
C     -4.06382   -2.48893   -1.93354
C     -1.90056   -2.82297   -2.97225
H     -0.27837   -1.64737   -2.16828
H     -3.70097   -3.85670   -3.56371
H     -4.12311   -1.05369   -0.32219
F     -1.12823   -3.43779   -3.89313
F     -5.37923   -2.78137   -1.85197
H     -2.66398    1.02553   -1.65013
C     -1.18302    2.40637   -1.38973
H     -0.50759    1.93875   -1.94159
H     -0.71546    2.84994   -0.63700
C     -1.91251    3.45251   -2.23798
H     -1.26160    4.11905   -2.57272
H     -2.33016    3.01150   -3.01876
C     -2.98350    4.15595   -1.41773
H     -3.45901    4.81017   -1.98778
H     -2.55754    4.65128   -0.67432
C     -3.98234    3.14990   -0.85319
H     -4.46681    2.71473   -1.59737
H     -4.64609    3.62434   -0.29176
C     -3.27478    2.08199   -0.01341
H     -2.86495    2.50128    0.78459
H     -3.93146    1.40907    0.29502
