41
symmetry c1
Ni     0.83790    0.00638    0.00502
C      1.33771   -0.17195    1.73111
C      1.36973   -1.38813   -1.01138
C      1.33687    1.59507   -0.69356
O      1.65844   -0.28514    2.82425
O      1.71096   -2.27106   -1.65533
O      1.65702    2.60141   -1.13565
P     -1.40189   -0.01602   -0.01066
C     -2.10252   -1.23252   -1.18460
C     -2.19596    1.40295   -0.85023
C     -2.14643   -0.33994    1.64050
H     -2.07876    0.59578    2.21112
C     -1.36579   -1.41319    2.42180
C     -3.63806   -0.70834    1.53545
H     -4.20229    0.06932    1.01169
H     -3.77797   -1.64705    0.98837
H     -4.07603   -0.83639    2.53138
H     -1.40617   -2.38277    1.91355
H     -1.78811   -1.54609    3.42383
H     -0.31229   -1.13734    2.52906
O     -1.63047   -1.37787   -2.30279
C     -3.29619   -2.06387   -0.72897
H     -3.03939   -2.64669    0.16500
H     -4.13724   -1.41232   -0.45892
H     -3.59234   -2.73581   -1.53725
H     -2.66398    1.02553   -1.65013
C     -1.18302    2.40637   -1.38973
H     -0.50759    1.93875   -1.94159
H     -0.71546    2.84994   -0.63700
C     -1.91251    3.45251   -2.23798
H     -1.26160    4.11905   -2.57272
H     -2.33016    3.01150   -3.01876
C     -2.98350    4.15595   -1.41773
H     -3.45901    4.81017   -1.98778
H     -2.55754    4.65128   -0.67432
C     -3.98234    3.14990   -0.85319
H     -4.46681    2.71473   -1.59737
H     -4.64609    3.62434   -0.29176
C     -3.27478    2.08199   -0.01341
H     -2.86495    2.50128    0.78459
H     -3.93146    1.40907    0.29502
