36
symmetry c1
Ni     0.83790    0.00638    0.00502
C      1.33771   -0.17195    1.73111
C      1.36973   -1.38813   -1.01138
C      1.33687    1.59507   -0.69356
O      1.65844   -0.28514    2.82425
O      1.71096   -2.27106   -1.65533
O      1.65702    2.60141   -1.13565
P     -1.40189   -0.01602   -0.01066
N     -2.07985   -1.25385   -1.09534
N     -2.14612    1.40142   -0.78873
C     -2.14643   -0.33994    1.64050
H     -2.07876    0.59578    2.21112
C     -1.36579   -1.41319    2.42180
C     -3.63806   -0.70834    1.53545
H     -4.20229    0.06932    1.01169
H     -3.77797   -1.64705    0.98837
H     -4.07603   -0.83639    2.53138
H     -1.40617   -2.38277    1.91355
H     -1.78811   -1.54609    3.42383
H     -0.31229   -1.13734    2.52906
C     -3.37036   -1.84480   -0.76550
H     -3.62741   -2.58647   -1.52636
H     -3.32056   -2.36010    0.20138
H     -4.17932   -1.09504   -0.71280
C     -1.70056   -1.23736   -2.50221
H     -0.61802   -1.37691   -2.60942
H     -2.19648   -2.06597   -3.01458
H     -1.97568   -0.29341   -3.00479
C     -1.61661    1.85868   -2.06700
H     -2.17973    2.73752   -2.39195
H     -0.56540    2.15378   -1.96342
H     -1.67958    1.08588   -2.85322
C     -3.54311    1.70414   -0.50556
H     -3.68338    1.90359    0.56375
H     -3.83058    2.60511   -1.05388
H     -4.22203    0.88194   -0.79259
