58
symmetry c1
Ni     0.83790    0.00638    0.00502
C      1.33771   -0.17195    1.73111
C      1.36973   -1.38813   -1.01138
C      1.33687    1.59507   -0.69356
O      1.65844   -0.28514    2.82425
O      1.71096   -2.27106   -1.65533
O      1.65702    2.60141   -1.13565
P     -1.40189   -0.01602   -0.01066
C     -2.13806   -1.24584   -1.14841
C     -2.19598    1.40294   -0.85022
C     -2.14643   -0.33994    1.64050
H     -2.07876    0.59578    2.21112
C     -1.36579   -1.41319    2.42180
C     -3.63806   -0.70834    1.53545
H     -4.20229    0.06932    1.01169
H     -3.77797   -1.64705    0.98837
H     -4.07603   -0.83639    2.53138
H     -1.40617   -2.38277    1.91355
H     -1.78811   -1.54609    3.42383
H     -0.31229   -1.13734    2.52906
C     -3.49861   -1.54396   -1.06774
C     -1.33903   -1.88526   -2.09616
C     -4.06004   -2.48081   -1.93512
C     -1.90028   -2.82314   -2.96322
C     -3.26058   -3.12089   -2.88294
H     -5.13256   -2.71538   -1.87201
H     -1.26994   -3.32744   -3.71010
C     -4.38065   -0.83696   -0.02191
H     -4.31909    0.22220   -0.16081
H     -4.03971   -1.08824    0.96070
H     -5.39600   -1.15362   -0.13898
C     -3.88080   -4.15533   -3.84047
H     -4.64260   -3.68625   -4.42743
H     -4.30939   -4.95473   -3.27288
H     -3.12133   -4.54375   -4.48641
C      0.16284   -1.55654   -2.18522
H      0.64288   -1.83061   -1.26907
H      0.28895   -0.50750   -2.35403
H      0.60021   -2.10313   -2.99446
C     -1.96886    1.62592   -2.20859
C     -3.02820    2.26162   -0.13215
C     -2.57440    2.70696   -2.84882
C     -3.63322    3.34362   -0.77220
C     -3.40657    3.56632   -2.13035
H     -2.39592    2.88241   -3.91964
H     -4.28901    4.02072   -0.20568
C     -1.05081    0.67699   -3.00125
H     -1.42136   -0.32391   -2.92514
H     -0.05982    0.72189   -2.60020
H     -1.03336    0.97366   -4.02915
C     -4.07497    4.75994   -2.83755
H     -4.70244    4.40126   -3.62656
H     -3.32119    5.40097   -3.24472
H     -4.66569    5.30691   -2.13273
C     -3.27886    2.01585    1.36731
H     -2.35614    2.10254    1.90207
H     -3.68029    1.03369    1.50553
H     -3.97430    2.74057    1.73615
