30
symmetry c1
Ni     0.83790    0.00638    0.00502
C      1.33771   -0.17195    1.73111
C      1.36973   -1.38813   -1.01138
C      1.33687    1.59507   -0.69356
O      1.65844   -0.28514    2.82425
O      1.71096   -2.27106   -1.65533
O      1.65702    2.60141   -1.13565
P     -1.40189   -0.01602   -0.01066
C     -2.10252   -1.23252   -1.18460
C     -2.23632    1.39910   -0.81692
C     -2.14643   -0.33994    1.64050
H     -2.07876    0.59578    2.21112
C     -1.36579   -1.41319    2.42180
C     -3.63806   -0.70834    1.53545
H     -4.20229    0.06932    1.01169
H     -3.77797   -1.64705    0.98837
H     -4.07603   -0.83639    2.53138
H     -1.40617   -2.38277    1.91355
H     -1.78811   -1.54609    3.42383
H     -0.31229   -1.13734    2.52906
O     -1.63047   -1.37787   -2.30279
C     -3.29619   -2.06387   -0.72897
H     -3.03939   -2.64669    0.16500
H     -4.13724   -1.41232   -0.45892
H     -3.59234   -2.73581   -1.53725
O     -3.32248    1.80061   -0.42531
C     -1.53770    2.06723   -1.99554
H     -0.55542    2.45165   -1.69198
H     -1.36556    1.34196   -2.80124
H     -2.15984    2.88686   -2.36111
