47
symmetry c1
Ni     0.83790    0.00638    0.00502
C      1.33771   -0.17195    1.73111
C      1.36973   -1.38813   -1.01138
C      1.33687    1.59507   -0.69356
O      1.65844   -0.28514    2.82425
O      1.71096   -2.27106   -1.65533
O      1.65702    2.60141   -1.13565
P     -1.40189   -0.01602   -0.01066
C     -2.13806   -1.24584   -1.14841
N     -2.14612    1.40142   -0.78873
C     -2.14643   -0.33994    1.64050
H     -2.07876    0.59578    2.21112
C     -1.36579   -1.41319    2.42180
C     -3.63806   -0.70834    1.53545
H     -4.20229    0.06932    1.01169
H     -3.77797   -1.64705    0.98837
H     -4.07603   -0.83639    2.53138
H     -1.40617   -2.38277    1.91355
H     -1.78811   -1.54609    3.42383
H     -0.31229   -1.13734    2.52906
C     -3.49861   -1.54396   -1.06774
C     -1.33903   -1.88526   -2.09616
C     -4.06004   -2.48081   -1.93512
C     -1.90028   -2.82314   -2.96322
C     -3.26058   -3.12089   -2.88294
H     -5.13256   -2.71538   -1.87201
H     -1.26994   -3.32744   -3.71010
C     -4.38065   -0.83696   -0.02191
H     -4.31909    0.22220   -0.16081
H     -4.03971   -1.08824    0.96070
H     -5.39600   -1.15362   -0.13898
C     -3.88080   -4.15533   -3.84047
H     -4.64260   -3.68625   -4.42743
H     -4.30939   -4.95473   -3.27288
H     -3.12133   -4.54375   -4.48641
C      0.16284   -1.55654   -2.18522
H      0.64288   -1.83061   -1.26907
H      0.28895   -0.50750   -2.35403
H      0.60021   -2.10313   -2.99446
C     -1.61661    1.85868   -2.06700
H     -2.17973    2.73752   -2.39195
H     -0.56540    2.15378   -1.96342
H     -1.67958    1.08588   -2.85322
C     -3.54311    1.70414   -0.50556
H     -3.68338    1.90359    0.56375
H     -3.83058    2.60511   -1.05388
H     -4.22203    0.88194   -0.79259
