36
symmetry c1
Ni     0.83790    0.00638    0.00502
C      1.33771   -0.17195    1.73111
C      1.36973   -1.38813   -1.01138
C      1.33687    1.59507   -0.69356
O      1.65844   -0.28514    2.82425
O      1.71096   -2.27106   -1.65533
O      1.65702    2.60141   -1.13565
P     -1.40189   -0.01602   -0.01066
C     -2.08193   -1.22445   -1.20487
C     -2.19596    1.40295   -0.85023
C     -2.14643   -0.33994    1.64050
H     -2.07876    0.59578    2.21112
C     -1.36579   -1.41319    2.42180
C     -3.63806   -0.70834    1.53545
H     -4.20229    0.06932    1.01169
H     -3.77797   -1.64705    0.98837
H     -4.07603   -0.83639    2.53138
H     -1.40617   -2.38277    1.91355
H     -1.78811   -1.54609    3.42383
H     -0.31229   -1.13734    2.52906
O     -1.64796   -1.40535   -2.32638
O     -3.14362   -1.91142   -0.69582
C     -3.72763   -2.88489   -1.59414
H     -4.55083   -3.33450   -1.03515
H     -2.98397   -3.63936   -1.87127
H     -4.09288   -2.39255   -2.50147
C     -3.03505    2.26076   -0.13133
C     -1.96387    1.62977   -2.21090
C     -3.40993    3.57222   -2.13375
C     -2.57085    2.71441   -2.85266
C     -3.64203    3.34540   -0.77309
H     -3.21545    2.08445    0.92631
H     -4.29424    4.01217   -0.21429
H     -3.88174    4.41531   -2.63259
H     -2.39044    2.89072   -3.91029
H     -1.31165    0.96300   -2.76970
