26
symmetry c1
Ni     0.83790    0.00638    0.00502
C      1.33771   -0.17195    1.73111
C      1.36973   -1.38813   -1.01138
C      1.33687    1.59507   -0.69356
O      1.65844   -0.28514    2.82425
O      1.71096   -2.27106   -1.65533
O      1.65702    2.60141   -1.13565
P     -1.40189   -0.01602   -0.01066
Br    -2.29095   -1.50122   -1.38464
C     -2.25908    1.39639   -0.79757
C     -2.14643   -0.33994    1.64050
H     -2.07876    0.59578    2.21112
C     -1.36579   -1.41319    2.42180
C     -3.63806   -0.70834    1.53545
H     -4.20229    0.06932    1.01169
H     -3.77797   -1.64705    0.98837
H     -4.07603   -0.83639    2.53138
H     -1.40617   -2.38277    1.91355
H     -1.78811   -1.54609    3.42383
H     -0.31229   -1.13734    2.52906
O     -3.33837    1.83187   -0.44498
O     -1.54808    1.91697   -1.83763
C     -2.17437    3.03961   -2.50331
H     -1.48124    3.32666   -3.29670
H     -2.32494    3.86320   -1.79757
H     -3.14324    2.74233   -2.91800
