12
symmetry c1
Ni     0.83790    0.00638    0.00502
C      1.33771   -0.17195    1.73111
C      1.36973   -1.38813   -1.01138
C      1.33687    1.59507   -0.69356
O      1.65844   -0.28514    2.82425
O      1.71096   -2.27106   -1.65533
O      1.65702    2.60141   -1.13565
P     -1.40189   -0.01602   -0.01066
Cl    -2.45261   -1.44566   -1.11528
Cl    -2.48589    1.63311   -0.69872
S     -2.50909   -0.35207    1.76573
H     -2.45552    0.91550    2.22148
