20
symmetry c1
Ni     0.83790    0.00638    0.00502
C      1.33771   -0.17195    1.73111
C      1.36973   -1.38813   -1.01138
C      1.33687    1.59507   -0.69356
O      1.65844   -0.28514    2.82425
O      1.71096   -2.27106   -1.65533
O      1.65702    2.60141   -1.13565
P     -1.40189   -0.01602   -0.01066
C     -2.26457   -1.26167   -1.03682
Cl    -2.48589    1.63311   -0.69872
C     -2.34967   -0.23604    1.53924
O     -1.88294   -1.64149   -2.12721
O     -3.39860   -1.72617   -0.43977
C     -4.12805   -2.71656   -1.20313
H     -4.99261   -2.97426   -0.58797
H     -3.49958   -3.59496   -1.38337
H     -4.44227   -2.29816   -2.16503
H     -1.82534    0.26747    2.37885
H     -2.44954   -1.31732    1.77217
H     -3.36301    0.20501    1.42968
