11
symmetry c1
Ni       0.837897000      0.006378000      0.005016000
C        1.337710000     -0.171953000      1.731108000
C        1.369733000     -1.388131000     -1.011384000
C        1.336874000      1.595067000     -0.693562000
O        1.658445000     -0.285144000      2.824251000
O        1.710960000     -2.271062000     -1.655330000
O        1.657019000      2.601406000     -1.135647000
P       -1.401885000     -0.016018000     -0.010661000
H       -2.117287000     -0.989409000     -0.762756000
H       -2.139939000      1.106808000     -0.479131000
H       -2.138878000     -0.187109000      1.194534000

