21
symmetry c1
Ni     0.83790    0.00638    0.00502
C      1.33771   -0.17195    1.73111
C      1.36973   -1.38813   -1.01138
C      1.33687    1.59507   -0.69356
O      1.65844   -0.28514    2.82425
O      1.71096   -2.27106   -1.65533
O      1.65702    2.60141   -1.13565
P     -1.40189   -0.01602   -0.01066
S     -2.37090   -1.45494   -1.22923
C     -2.41076    1.40416   -0.57117
Si    -2.56517   -0.26936    1.81554
O     -3.55847    1.62110   -0.23463
O     -1.73819    2.23111   -1.43291
H     -2.36315    2.93850   -1.66008
C     -3.83416   -1.92317   -0.24131
H     -3.53669   -2.36518    0.71525
H     -4.48569   -1.05970   -0.07164
H     -4.36644   -2.66978   -0.83802
H     -4.02005   -0.03980    1.56932
H     -2.10905    0.71000    2.84350
H     -2.39667   -1.65800    2.33253
