17
symmetry c1
Ni     0.83790    0.00638    0.00502
C      1.33771   -0.17195    1.73111
C      1.36973   -1.38813   -1.01138
C      1.33687    1.59507   -0.69356
O      1.65844   -0.28514    2.82425
O      1.71096   -2.27106   -1.65533
O      1.65702    2.60141   -1.13565
P     -1.40189   -0.01602   -0.01066
C     -2.32190   -1.26781   -0.97786
Br    -2.54813    1.72780   -0.73822
C     -2.33961   -0.16140    1.55409
F     -1.44585   -1.96960   -1.78534
F     -3.26876   -0.64291   -1.76840
F     -2.95452   -2.14801   -0.11935
O     -2.55612    0.75264    2.32559
O     -2.79272   -1.43335    1.78996
H     -3.26883   -1.39039    2.63497
