16
symmetry c1
Ni     0.83790    0.00638    0.00502
C      1.33771   -0.17195    1.73111
C      1.36973   -1.38813   -1.01138
C      1.33687    1.59507   -0.69356
O      1.65844   -0.28514    2.82425
O      1.71096   -2.27106   -1.65533
O      1.65702    2.60141   -1.13565
P     -1.40189   -0.01602   -0.01066
S     -2.52423   -1.47000   -1.06928
C     -2.41076    1.40416   -0.57117
S     -2.50909   -0.35207    1.76573
O     -3.55847    1.62110   -0.23463
O     -1.73819    2.23111   -1.43291
H     -2.36315    2.93850   -1.66008
H     -1.71640   -1.53218   -2.14670
H     -2.45552    0.91550    2.22148
