17
symmetry c1
Ni     0.83790    0.00638    0.00502
C      1.33771   -0.17195    1.73111
C      1.36973   -1.38813   -1.01138
C      1.33687    1.59507   -0.69356
O      1.65844   -0.28514    2.82425
O      1.71096   -2.27106   -1.65533
O      1.65702    2.60141   -1.13565
P     -1.40189   -0.01602   -0.01066
C     -2.32190   -1.26781   -0.97786
Br    -2.54813    1.72780   -0.73822
C     -2.34297   -0.18506    1.54968
N     -2.90653   -2.06327   -1.59248
O     -2.52741    0.77391    2.28497
C     -2.89350   -1.56008    1.91003
H     -3.57429   -1.91835    1.12710
H     -2.07872   -2.29135    1.98871
H     -3.42508   -1.49339    2.86160
