34
symmetry c1
Ni     0.83790    0.00638    0.00502
C      1.33771   -0.17195    1.73111
C      1.36973   -1.38813   -1.01138
C      1.33687    1.59507   -0.69356
O      1.65844   -0.28514    2.82425
O      1.71096   -2.27106   -1.65533
O      1.65702    2.60141   -1.13565
P     -1.40189   -0.01602   -0.01066
C     -2.32190   -1.26781   -0.97786
C     -2.35103    1.42795   -0.61312
C     -2.34967   -0.23604    1.53924
F     -3.29243    1.79421    0.33114
F     -2.99286    1.10430   -1.79435
F     -1.49351    2.48938   -0.83679
N     -3.41247   -1.79758   -0.34645
O     -1.99051   -1.61780   -2.12370
H     -3.97078   -2.48128   -0.79408
H     -3.66512   -1.51110    0.56278
H     -1.69904   -0.58384    2.21529
C     -3.43649   -1.29791    1.41581
H     -3.04917   -2.13561    1.05852
H     -4.13895   -0.98882    0.78893
C     -4.04805   -1.55609    2.79619
H     -4.76951   -2.22937    2.71750
H     -3.35468   -1.91769    3.40202
C     -4.61440   -0.27070    3.38073
H     -4.98321   -0.45207    4.28082
H     -5.35285    0.05498    2.80794
C     -3.53422    0.80269    3.47854
H     -2.83719    0.51044    4.11622
H     -3.93306    1.64083    3.82393
C     -2.89468    1.06778    2.11215
H     -3.56936    1.44828    1.49522
H     -2.15997    1.72369    2.20785
