24
symmetry c1
Ni     0.83790    0.00638    0.00502
C      1.33771   -0.17195    1.73111
C      1.36973   -1.38813   -1.01138
C      1.33687    1.59507   -0.69356
O      1.65844   -0.28514    2.82425
O      1.71096   -2.27106   -1.65533
O      1.65702    2.60141   -1.13565
P     -1.40189   -0.01602   -0.01066
C     -2.32190   -1.26781   -0.97786
F     -2.25249    1.27803   -0.55057
C     -2.34967   -0.23604    1.53924
H     -2.40892   -0.94066   -2.03560
H     -3.34053   -1.39958   -0.55549
H     -1.78787   -2.24096   -0.94346
C     -3.09877    0.82547    2.05766
C     -2.32505   -1.46574    2.20554
C     -3.79862   -0.57241    3.90869
C     -3.04952   -1.63393    3.39027
C     -3.82325    0.65728    3.24239
H     -3.11791    1.78131    1.53975
H     -4.40552    1.48239    3.64535
H     -4.36175   -0.70314    4.82957
H     -3.03038   -2.58977    3.90818
H     -1.74277   -2.29085    1.80258
