22
symmetry c1
Ni     0.83790    0.00638    0.00502
C      1.33771   -0.17195    1.73111
C      1.36973   -1.38813   -1.01138
C      1.33687    1.59507   -0.69356
O      1.65844   -0.28514    2.82425
O      1.71096   -2.27106   -1.65533
O      1.65702    2.60141   -1.13565
P     -1.40189   -0.01602   -0.01066
C     -2.32190   -1.26781   -0.97786
C     -2.35103    1.42795   -0.61312
C     -2.34967   -0.23604    1.53924
N     -1.64659    2.29219   -1.40404
O     -3.54669    1.61913   -0.33188
H     -2.07914    3.10093   -1.77602
H     -0.69830    2.12895   -1.62015
N     -3.41247   -1.79758   -0.34645
O     -1.99051   -1.61780   -2.12370
H     -3.97078   -2.48128   -0.79408
H     -3.66512   -1.51110    0.56278
H     -1.82534    0.26747    2.37885
H     -2.44954   -1.31732    1.77217
H     -3.36301    0.20501    1.42968
