19
symmetry c1
Ni     0.83790    0.00638    0.00502
C      1.33771   -0.17195    1.73111
C      1.36973   -1.38813   -1.01138
C      1.33687    1.59507   -0.69356
O      1.65844   -0.28514    2.82425
O      1.71096   -2.27106   -1.65533
O      1.65702    2.60141   -1.13565
P     -1.40189   -0.01602   -0.01066
O     -2.17574   -1.18769   -1.02122
C     -2.35103    1.42795   -0.61312
S     -2.50909   -0.35207    1.76573
F     -3.29243    1.79421    0.33114
F     -2.99286    1.10430   -1.79435
F     -1.49351    2.48938   -0.83679
C     -3.38514   -1.77608   -0.53881
H     -3.21408   -2.31570    0.40437
H     -4.16128   -1.01271   -0.38102
H     -3.70643   -2.47667   -1.31362
H     -2.45552    0.91550    2.22148
