24
symmetry c1
Ni     0.83790    0.00638    0.00502
C      1.33771   -0.17195    1.73111
C      1.36973   -1.38813   -1.01138
C      1.33687    1.59507   -0.69356
O      1.65844   -0.28514    2.82425
O      1.71096   -2.27106   -1.65533
O      1.65702    2.60141   -1.13565
P     -1.40189   -0.01602   -0.01066
C     -2.28564   -1.26420   -1.01561
C     -2.39204    1.41196   -0.58456
C     -2.33961   -0.16140    1.55409
O     -3.54383    1.57565   -0.20919
C     -1.73936    2.39675   -1.54778
H     -0.84069    2.83679   -1.09660
H     -1.42203    1.88380   -2.46484
H     -2.45521    3.18436   -1.79221
O     -1.86139   -1.61390   -2.10741
C     -3.57110   -1.85922   -0.45247
H     -3.37685   -2.35333    0.50822
H     -4.31014   -1.06946   -0.26564
H     -3.97263   -2.58144   -1.16639
O     -2.55612    0.75264    2.32559
O     -2.79272   -1.43335    1.78996
H     -3.26883   -1.39039    2.63497
