18
symmetry c1
Ni     0.83790    0.00638    0.00502
C      1.33771   -0.17195    1.73111
C      1.36973   -1.38813   -1.01138
C      1.33687    1.59507   -0.69356
O      1.65844   -0.28514    2.82425
O      1.71096   -2.27106   -1.65533
O      1.65702    2.60141   -1.13565
P     -1.40189   -0.01602   -0.01066
N     -2.34087   -1.17011   -0.98778
C     -2.41076    1.40416   -0.57117
N     -2.25038   -0.24783    1.53683
O     -3.55847    1.62110   -0.23463
O     -1.73819    2.23111   -1.43291
H     -2.36315    2.93850   -1.66008
H     -1.79350   -1.68582   -1.66352
H     -2.93624   -1.78441   -0.44892
H     -2.68687    0.58790    1.90183
H     -2.88772   -1.03258    1.54896
