14
symmetry c1
Ni     0.83790    0.00638    0.00502
C      1.33771   -0.17195    1.73111
C      1.36973   -1.38813   -1.01138
C      1.33687    1.59507   -0.69356
O      1.65844   -0.28514    2.82425
O      1.71096   -2.27106   -1.65533
O      1.65702    2.60141   -1.13565
P     -1.40189   -0.01602   -0.01066
H     -2.11729   -0.98941   -0.76276
C     -2.35103    1.42795   -0.61312
N     -2.25038   -0.24783    1.53683
N     -2.95417    2.34553   -0.99596
H     -2.68687    0.58790    1.90183
H     -2.88772   -1.03258    1.54896
