27
symmetry c1
Ni     0.83790    0.00638    0.00502
C      1.33771   -0.17195    1.73111
C      1.36973   -1.38813   -1.01138
C      1.33687    1.59507   -0.69356
O      1.65844   -0.28514    2.82425
O      1.71096   -2.27106   -1.65533
O      1.65702    2.60141   -1.13565
P     -1.40189   -0.01602   -0.01066
F     -2.22638   -1.13784   -0.87744
C     -2.35103    1.42795   -0.61312
F     -2.25127   -0.21320    1.37832
H     -2.71732    1.16595   -1.50672
C     -1.46953    2.64688   -0.86044
H     -0.70566    2.39781   -1.43826
H     -1.11097    2.98273    0.00015
C     -2.29990    3.73989   -1.54009
H     -1.73724    4.54176   -1.68304
H     -2.60809    3.41896   -2.42358
C     -3.50277    4.10931   -0.68493
H     -4.03911    4.79848   -1.15018
H     -3.19240    4.49173    0.17348
C     -4.37123    2.88452   -0.41255
H     -4.74816    2.55279   -1.26447
H     -5.12505    3.13976    0.17691
C     -3.55891    1.76926    0.25276
H     -3.25615    2.06452    1.14815
H     -4.12499    0.96590    0.36828
