20
symmetry c1
Ni     0.83790    0.00638    0.00502
C      1.33771   -0.17195    1.73111
C      1.36973   -1.38813   -1.01138
C      1.33687    1.59507   -0.69356
O      1.65844   -0.28514    2.82425
O      1.71096   -2.27106   -1.65533
O      1.65702    2.60141   -1.13565
P     -1.40189   -0.01602   -0.01066
C     -2.28564   -1.26420   -1.01561
Br    -2.54813    1.72780   -0.73822
S     -2.48091   -0.13632    1.81022
O     -1.86139   -1.61390   -2.10741
C     -3.57110   -1.85922   -0.45247
H     -3.37685   -2.35333    0.50822
H     -4.31014   -1.06946   -0.26564
H     -3.97263   -2.58144   -1.16639
C     -2.96740   -1.89495    1.89333
H     -3.60735   -2.16543    1.04707
H     -2.08661   -2.54471    1.92318
H     -3.53075   -2.00154    2.82504
