23
symmetry c1
Ni     0.83790    0.00638    0.00502
C      1.33771   -0.17195    1.73111
C      1.36973   -1.38813   -1.01138
C      1.33687    1.59507   -0.69356
O      1.65844   -0.28514    2.82425
O      1.71096   -2.27106   -1.65533
O      1.65702    2.60141   -1.13565
P     -1.40189   -0.01602   -0.01066
C     -2.26457   -1.26167   -1.03682
C     -2.35103    1.42795   -0.61312
C     -2.33961   -0.16140    1.55409
F     -3.29243    1.79421    0.33114
F     -2.99286    1.10430   -1.79435
F     -1.49351    2.48938   -0.83679
O     -1.88294   -1.64149   -2.12721
O     -3.39860   -1.72617   -0.43977
C     -4.12805   -2.71656   -1.20313
H     -4.99261   -2.97426   -0.58797
H     -3.49958   -3.59496   -1.38337
H     -4.44227   -2.29816   -2.16503
O     -2.55612    0.75264    2.32559
O     -2.79272   -1.43335    1.78996
H     -3.26883   -1.39039    2.63497
