26
symmetry c1
Ni     0.83790    0.00638    0.00502
C      1.33771   -0.17195    1.73111
C      1.36973   -1.38813   -1.01138
C      1.33687    1.59507   -0.69356
O      1.65844   -0.28514    2.82425
O      1.71096   -2.27106   -1.65533
O      1.65702    2.60141   -1.13565
P     -1.40189   -0.01602   -0.01066
C     -2.28564   -1.26420   -1.01561
Br    -2.54813    1.72780   -0.73822
C     -2.34967   -0.23604    1.53924
O     -1.86139   -1.61390   -2.10741
C     -3.57110   -1.85922   -0.45247
H     -3.37685   -2.35333    0.50822
H     -4.31014   -1.06946   -0.26564
H     -3.97263   -2.58144   -1.16639
C     -3.09877    0.82547    2.05766
C     -2.32505   -1.46574    2.20554
C     -3.79862   -0.57241    3.90869
C     -3.04952   -1.63393    3.39027
C     -3.82325    0.65728    3.24239
H     -3.11791    1.78131    1.53975
H     -4.40552    1.48239    3.64535
H     -4.36175   -0.70314    4.82957
H     -3.03038   -2.58977    3.90818
H     -1.74277   -2.29085    1.80258
