14
symmetry c1
Ni     0.83790    0.00638    0.00502
C      1.33771   -0.17195    1.73111
C      1.36973   -1.38813   -1.01138
C      1.33687    1.59507   -0.69356
O      1.65844   -0.28514    2.82425
O      1.71096   -2.27106   -1.65533
O      1.65702    2.60141   -1.13565
P     -1.40189   -0.01602   -0.01066
H     -2.11729   -0.98941   -0.76276
Br    -2.54813    1.72780   -0.73822
C     -2.34967   -0.23604    1.53924
F     -2.97815    0.94929    1.87387
F     -1.49350   -0.60194    2.56153
F     -3.30201   -1.22372    1.36734
