15
symmetry c1
Ni     0.83790    0.00638    0.00502
C      1.33771   -0.17195    1.73111
C      1.36973   -1.38813   -1.01138
C      1.33687    1.59507   -0.69356
O      1.65844   -0.28514    2.82425
O      1.71096   -2.27106   -1.65533
O      1.65702    2.60141   -1.13565
P     -1.40189   -0.01602   -0.01066
C     -2.26859   -1.26218   -1.03282
Br    -2.54813    1.72780   -0.73822
S     -2.50909   -0.35207    1.76573
O     -1.89806   -1.65026   -2.12353
O     -3.41105   -1.73706   -0.44283
H     -3.78078   -2.38213   -1.06713
H     -2.45552    0.91550    2.22148
