39
symmetry c1
Ni     0.83790    0.00638    0.00502
C      1.33771   -0.17195    1.73111
C      1.36973   -1.38813   -1.01138
C      1.33687    1.59507   -0.69356
O      1.65844   -0.28514    2.82425
O      1.71096   -2.27106   -1.65533
O      1.65702    2.60141   -1.13565
P     -1.40189   -0.01602   -0.01066
C     -2.26457   -1.26167   -1.03682
C     -2.41512    1.40229   -0.56802
C     -2.34967   -0.23604    1.53924
O     -3.56310    1.60792   -0.22348
O     -1.73571    2.21698   -1.42413
C     -2.48464    3.35997   -1.90202
H     -1.80132    3.89478   -2.56485
H     -2.78993    3.99181   -1.06141
H     -3.37712    3.02923   -2.44343
O     -1.88294   -1.64149   -2.12721
O     -3.39860   -1.72617   -0.43977
C     -4.12805   -2.71656   -1.20313
H     -4.99261   -2.97426   -0.58797
H     -3.49958   -3.59496   -1.38337
H     -4.44227   -2.29816   -2.16503
H     -1.69904   -0.58384    2.21529
C     -3.43649   -1.29791    1.41581
H     -3.04917   -2.13561    1.05852
H     -4.13895   -0.98882    0.78893
C     -4.04805   -1.55609    2.79619
H     -4.76951   -2.22937    2.71750
H     -3.35468   -1.91769    3.40202
C     -4.61440   -0.27070    3.38073
H     -4.98321   -0.45207    4.28082
H     -5.35285    0.05498    2.80794
C     -3.53422    0.80269    3.47854
H     -2.83719    0.51044    4.11622
H     -3.93306    1.64083    3.82393
C     -2.89468    1.06778    2.11215
H     -3.56936    1.44828    1.49522
H     -2.15997    1.72369    2.20785
