17
symmetry c1
Ni     0.83790    0.00638    0.00502
C      1.33771   -0.17195    1.73111
C      1.36973   -1.38813   -1.01138
C      1.33687    1.59507   -0.69356
O      1.65844   -0.28514    2.82425
O      1.71096   -2.27106   -1.65533
O      1.65702    2.60141   -1.13565
P     -1.40189   -0.01602   -0.01066
N     -2.34087   -1.17011   -0.98778
Cl    -2.48589    1.63311   -0.69872
O     -2.27872   -0.09122    1.47877
H     -1.79350   -1.68582   -1.66352
H     -2.93624   -1.78441   -0.44892
C     -2.81583   -1.35844    1.86250
H     -3.53541   -1.72584    1.11600
H     -2.01757   -2.10440    1.99045
H     -3.32344   -1.19158    2.81584
