47
symmetry c1
Ni     0.83790    0.00638    0.00502
C      1.33771   -0.17195    1.73111
C      1.36973   -1.38813   -1.01138
C      1.33687    1.59507   -0.69356
O      1.65844   -0.28514    2.82425
O      1.71096   -2.27106   -1.65533
O      1.65702    2.60141   -1.13565
P     -1.40189   -0.01602   -0.01066
C     -2.32190   -1.26781   -0.97786
C     -2.35103    1.42795   -0.61312
C     -2.34967   -0.23604    1.53924
N     -1.64659    2.29219   -1.40404
O     -3.54669    1.61913   -0.33188
H     -2.07914    3.10093   -1.77602
H     -0.69830    2.12895   -1.62015
H     -3.04537   -0.77057   -1.45815
C     -3.02854   -2.28866   -0.09326
H     -3.57655   -1.82260    0.58636
H     -2.35848   -2.84643    0.37779
C     -3.92433   -3.17541   -0.96350
H     -4.36875   -3.85421   -0.39628
H     -4.62596   -2.62132   -1.38687
C     -3.10595   -3.87091   -2.04108
H     -3.70409   -4.41967   -2.60692
H     -2.44743   -4.47556   -1.61658
C     -2.37518   -2.85128   -2.90991
H     -3.03640   -2.30134   -3.39800
H     -1.81916   -3.32607   -3.57794
C     -1.48408   -1.94025   -2.06004
H     -0.76264   -2.47399   -1.64146
H     -1.06475   -1.25187   -2.63403
H     -1.69904   -0.58384    2.21529
C     -3.43649   -1.29791    1.41581
H     -3.04917   -2.13561    1.05852
H     -4.13895   -0.98882    0.78893
C     -4.04805   -1.55609    2.79619
H     -4.76951   -2.22937    2.71750
H     -3.35468   -1.91769    3.40202
C     -4.61440   -0.27070    3.38073
H     -4.98321   -0.45207    4.28082
H     -5.35285    0.05498    2.80794
C     -3.53422    0.80269    3.47854
H     -2.83719    0.51044    4.11622
H     -3.93306    1.64083    3.82393
C     -2.89468    1.06778    2.11215
H     -3.56936    1.44828    1.49522
H     -2.15997    1.72369    2.20785
