18
symmetry c1
Ni     0.83790    0.00638    0.00502
C      1.33771   -0.17195    1.73111
C      1.36973   -1.38813   -1.01138
C      1.33687    1.59507   -0.69356
O      1.65844   -0.28514    2.82425
O      1.71096   -2.27106   -1.65533
O      1.65702    2.60141   -1.13565
P     -1.40189   -0.01602   -0.01066
H     -2.11729   -0.98941   -0.76276
C     -2.35103    1.42795   -0.61312
S     -2.48091   -0.13632    1.81022
H     -3.36873    1.10976   -0.92368
H     -1.83412    1.88498   -1.48336
H     -2.43999    2.18630    0.19335
C     -2.96740   -1.89495    1.89333
H     -3.60735   -2.16543    1.04707
H     -2.08661   -2.54471    1.92318
H     -3.53075   -2.00154    2.82504
