20
symmetry c1
Ni     0.83790    0.00638    0.00502
C      1.33771   -0.17195    1.73111
C      1.36973   -1.38813   -1.01138
C      1.33687    1.59507   -0.69356
O      1.65844   -0.28514    2.82425
O      1.71096   -2.27106   -1.65533
O      1.65702    2.60141   -1.13565
P     -1.40189   -0.01602   -0.01066
Si    -2.47609   -1.53652   -1.14492
C     -2.35103    1.42795   -0.61312
Si    -2.56517   -0.26936    1.81554
H     -3.36873    1.10976   -0.92368
H     -1.83412    1.88498   -1.48336
H     -2.43999    2.18630    0.19335
H     -1.99874   -2.90916   -0.80138
H     -2.25989   -1.32268   -2.60487
H     -3.93290   -1.46199   -0.83489
H     -4.02005   -0.03980    1.56932
H     -2.10905    0.71000    2.84350
H     -2.39667   -1.65800    2.33253
