24
symmetry c1
Ni     0.83790    0.00638    0.00502
C      1.33771   -0.17195    1.73111
C      1.36973   -1.38813   -1.01138
C      1.33687    1.59507   -0.69356
O      1.65844   -0.28514    2.82425
O      1.71096   -2.27106   -1.65533
O      1.65702    2.60141   -1.13565
P     -1.40189   -0.01602   -0.01066
O     -2.27163   -1.19941   -0.92501
N     -2.35215    1.34079   -0.66216
C     -2.34967   -0.23604    1.53924
H     -3.11553    1.63732   -0.06926
H     -1.79735    2.12762   -0.97084
H     -2.83167   -1.71269   -0.31438
C     -3.09877    0.82547    2.05766
C     -2.32505   -1.46574    2.20554
C     -3.79862   -0.57241    3.90869
C     -3.04952   -1.63393    3.39027
C     -3.82325    0.65728    3.24239
H     -3.11791    1.78131    1.53975
H     -4.40552    1.48239    3.64535
H     -4.36175   -0.70314    4.82957
H     -3.03038   -2.58977    3.90818
H     -1.74277   -2.29085    1.80258
