27
symmetry c1
Ni     0.83790    0.00638    0.00502
C      1.33771   -0.17195    1.73111
C      1.36973   -1.38813   -1.01138
C      1.33687    1.59507   -0.69356
O      1.65844   -0.28514    2.82425
O      1.71096   -2.27106   -1.65533
O      1.65702    2.60141   -1.13565
P     -1.40189   -0.01602   -0.01066
Si    -2.47609   -1.53652   -1.14492
C     -2.35103    1.42795   -0.61312
Si    -2.56517   -0.26936    1.81554
C     -3.34220    1.99881    0.19213
C     -2.08539    1.96086   -1.87889
C     -3.80207    3.63547   -1.53415
C     -2.81090    3.06461   -2.33940
C     -4.06772    3.10256   -0.26838
H     -3.54869    1.58459    1.17601
H     -4.83815    3.54629    0.35754
H     -4.36601    4.49341   -1.89210
H     -2.60442    3.47883   -3.32328
H     -1.31496    1.51713   -2.50481
H     -1.99874   -2.90916   -0.80138
H     -2.25989   -1.32268   -2.60487
H     -3.93290   -1.46199   -0.83489
H     -4.02005   -0.03980    1.56932
H     -2.10905    0.71000    2.84350
H     -2.39667   -1.65800    2.33253
