21
symmetry c1
Ni     0.83790    0.00638    0.00502
C      1.33771   -0.17195    1.73111
C      1.36973   -1.38813   -1.01138
C      1.33687    1.59507   -0.69356
O      1.65844   -0.28514    2.82425
O      1.71096   -2.27106   -1.65533
O      1.65702    2.60141   -1.13565
P     -1.40189   -0.01602   -0.01066
O     -2.27163   -1.19941   -0.92501
C     -2.41512    1.40229   -0.56802
Si    -2.56517   -0.26936    1.81554
O     -3.56310    1.60792   -0.22348
O     -1.73571    2.21698   -1.42413
C     -2.48464    3.35997   -1.90202
H     -1.80132    3.89478   -2.56485
H     -2.78993    3.99181   -1.06141
H     -3.37712    3.02923   -2.44343
H     -2.83167   -1.71269   -0.31438
H     -4.02005   -0.03980    1.56932
H     -2.10905    0.71000    2.84350
H     -2.39667   -1.65800    2.33253
