19
symmetry c1
Ni     0.83790    0.00638    0.00502
C      1.33771   -0.17195    1.73111
C      1.36973   -1.38813   -1.01138
C      1.33687    1.59507   -0.69356
O      1.65844   -0.28514    2.82425
O      1.71096   -2.27106   -1.65533
O      1.65702    2.60141   -1.13565
P     -1.40189   -0.01602   -0.01066
I     -2.60846   -1.65771   -1.27913
C     -2.35103    1.42795   -0.61312
O     -2.27872   -0.09122    1.47877
N     -1.64659    2.29219   -1.40404
O     -3.54669    1.61913   -0.33188
H     -2.07914    3.10093   -1.77602
H     -0.69830    2.12895   -1.62015
C     -2.81583   -1.35844    1.86250
H     -3.53541   -1.72584    1.11600
H     -2.01757   -2.10440    1.99045
H     -3.32344   -1.19158    2.81584
