31
symmetry c1
Ni     0.83790    0.00638    0.00502
C      1.33771   -0.17195    1.73111
C      1.36973   -1.38813   -1.01138
C      1.33687    1.59507   -0.69356
O      1.65844   -0.28514    2.82425
O      1.71096   -2.27106   -1.65533
O      1.65702    2.60141   -1.13565
P     -1.40189   -0.01602   -0.01066
H     -2.11729   -0.98941   -0.76276
C     -2.35103    1.42795   -0.61312
C     -2.34967   -0.23604    1.53924
C     -3.34220    1.99881    0.19213
C     -2.08539    1.96086   -1.87889
C     -3.80207    3.63547   -1.53415
C     -2.81090    3.06461   -2.33940
C     -4.06772    3.10256   -0.26838
H     -3.54869    1.58459    1.17601
H     -4.83815    3.54629    0.35754
H     -4.36601    4.49341   -1.89210
H     -2.60442    3.47883   -3.32328
H     -1.31496    1.51713   -2.50481
C     -3.09877    0.82547    2.05766
C     -2.32505   -1.46574    2.20554
C     -3.79862   -0.57241    3.90869
C     -3.04952   -1.63393    3.39027
C     -3.82325    0.65728    3.24239
H     -3.11791    1.78131    1.53975
H     -4.40552    1.48239    3.64535
H     -4.36175   -0.70314    4.82957
H     -3.03038   -2.58977    3.90818
H     -1.74277   -2.29085    1.80258
