22
symmetry c1
Ni     0.83790    0.00638    0.00502
C      1.33771   -0.17195    1.73111
C      1.36973   -1.38813   -1.01138
C      1.33687    1.59507   -0.69356
O      1.65844   -0.28514    2.82425
O      1.71096   -2.27106   -1.65533
O      1.65702    2.60141   -1.13565
P     -1.40189   -0.01602   -0.01066
S     -2.37090   -1.45494   -1.22923
C     -2.41512    1.40229   -0.56802
S     -2.50909   -0.35207    1.76573
O     -3.56310    1.60792   -0.22348
O     -1.73571    2.21698   -1.42413
C     -2.48464    3.35997   -1.90202
H     -1.80132    3.89478   -2.56485
H     -2.78993    3.99181   -1.06141
H     -3.37712    3.02923   -2.44343
C     -3.83416   -1.92317   -0.24131
H     -3.53669   -2.36518    0.71525
H     -4.48569   -1.05970   -0.07164
H     -4.36644   -2.66978   -0.83802
H     -2.45552    0.91550    2.22148
