18
symmetry c1
Ni     0.83790    0.00638    0.00502
C      1.33771   -0.17195    1.73111
C      1.36973   -1.38813   -1.01138
C      1.33687    1.59507   -0.69356
O      1.65844   -0.28514    2.82425
O      1.71096   -2.27106   -1.65533
O      1.65702    2.60141   -1.13565
P     -1.40189   -0.01602   -0.01066
F     -2.22638   -1.13784   -0.87744
C     -2.39204    1.41196   -0.58456
N     -2.25038   -0.24783    1.53683
O     -3.54383    1.57565   -0.20919
C     -1.73936    2.39675   -1.54778
H     -0.84069    2.83679   -1.09660
H     -1.42203    1.88380   -2.46484
H     -2.45521    3.18436   -1.79221
H     -2.68687    0.58790    1.90183
H     -2.88772   -1.03258    1.54896
