37
symmetry c1
Ni     0.83790    0.00638    0.00502
C      1.33771   -0.17195    1.73111
C      1.36973   -1.38813   -1.01138
C      1.33687    1.59507   -0.69356
O      1.65844   -0.28514    2.82425
O      1.71096   -2.27106   -1.65533
O      1.65702    2.60141   -1.13565
P     -1.40189   -0.01602   -0.01066
C     -2.32190   -1.26781   -0.97786
C     -2.41512    1.40229   -0.56802
C     -2.34967   -0.23604    1.53924
O     -3.56310    1.60792   -0.22348
O     -1.73571    2.21698   -1.42413
C     -2.48464    3.35997   -1.90202
H     -1.80132    3.89478   -2.56485
H     -2.78993    3.99181   -1.06141
H     -3.37712    3.02923   -2.44343
C     -1.63575   -2.12470   -1.84485
C     -3.71130   -1.36777   -0.85020
C     -3.72840   -3.18152   -2.45650
C     -4.41455   -2.32463   -1.58952
C     -2.33900   -3.08156   -2.58416
H     -0.55578   -2.04700   -1.94408
H     -1.80566   -3.74762   -3.25806
H     -4.27503   -3.92528   -3.03117
H     -5.49452   -2.40233   -1.49029
H     -4.24464   -0.70172   -0.17630
C     -3.09877    0.82547    2.05766
C     -2.32505   -1.46574    2.20554
C     -3.79862   -0.57241    3.90869
C     -3.04952   -1.63393    3.39027
C     -3.82325    0.65728    3.24239
H     -3.11791    1.78131    1.53975
H     -4.40552    1.48239    3.64535
H     -4.36175   -0.70314    4.82957
H     -3.03038   -2.58977    3.90818
H     -1.74277   -2.29085    1.80258
