14
symmetry c1
Ni     0.83790    0.00638    0.00502
C      1.33771   -0.17195    1.73111
C      1.36973   -1.38813   -1.01138
C      1.33687    1.59507   -0.69356
O      1.65844   -0.28514    2.82425
O      1.71096   -2.27106   -1.65533
O      1.65702    2.60141   -1.13565
P     -1.40189   -0.01602   -0.01066
N     -2.34087   -1.17011   -0.98778
Br    -2.54813    1.72780   -0.73822
O     -2.29788   -0.22402    1.45455
H     -1.79350   -1.68582   -1.66352
H     -2.93624   -1.78441   -0.44892
H     -2.85349   -1.02010    1.36771
