21
symmetry c1
Ni     0.83790    0.00638    0.00502
C      1.33771   -0.17195    1.73111
C      1.36973   -1.38813   -1.01138
C      1.33687    1.59507   -0.69356
O      1.65844   -0.28514    2.82425
O      1.71096   -2.27106   -1.65533
O      1.65702    2.60141   -1.13565
P     -1.40189   -0.01602   -0.01066
O     -2.17574   -1.18769   -1.02122
C     -2.39204    1.41196   -0.58456
S     -2.50909   -0.35207    1.76573
O     -3.54383    1.57565   -0.20919
C     -1.73936    2.39675   -1.54778
H     -0.84069    2.83679   -1.09660
H     -1.42203    1.88380   -2.46484
H     -2.45521    3.18436   -1.79221
C     -3.38514   -1.77608   -0.53881
H     -3.21408   -2.31570    0.40437
H     -4.16128   -1.01271   -0.38102
H     -3.70643   -2.47667   -1.31362
H     -2.45552    0.91550    2.22148
