20
symmetry c1
Ni     0.83790    0.00638    0.00502
C      1.33771   -0.17195    1.73111
C      1.36973   -1.38813   -1.01138
C      1.33687    1.59507   -0.69356
O      1.65844   -0.28514    2.82425
O      1.71096   -2.27106   -1.65533
O      1.65702    2.60141   -1.13565
P     -1.40189   -0.01602   -0.01066
C     -2.26859   -1.26218   -1.03282
C     -2.41076    1.40416   -0.57117
Si    -2.56517   -0.26936    1.81554
O     -3.55847    1.62110   -0.23463
O     -1.73819    2.23111   -1.43291
H     -2.36315    2.93850   -1.66008
O     -1.89806   -1.65026   -2.12353
O     -3.41105   -1.73706   -0.44283
H     -3.78078   -2.38213   -1.06713
H     -4.02005   -0.03980    1.56932
H     -2.10905    0.71000    2.84350
H     -2.39667   -1.65800    2.33253
