14
symmetry c1
Ni     0.83790    0.00638    0.00502
C      1.33771   -0.17195    1.73111
C      1.36973   -1.38813   -1.01138
C      1.33687    1.59507   -0.69356
O      1.65844   -0.28514    2.82425
O      1.71096   -2.27106   -1.65533
O      1.65702    2.60141   -1.13565
P     -1.40189   -0.01602   -0.01066
I     -2.60846   -1.65771   -1.27913
Cl    -2.48589    1.63311   -0.69872
C     -2.34967   -0.23604    1.53924
H     -1.82534    0.26747    2.37885
H     -2.44954   -1.31732    1.77217
H     -3.36301    0.20501    1.42968
