18
symmetry c1
Ni     0.83790    0.00638    0.00502
C      1.33771   -0.17195    1.73111
C      1.36973   -1.38813   -1.01138
C      1.33687    1.59507   -0.69356
O      1.65844   -0.28514    2.82425
O      1.71096   -2.27106   -1.65533
O      1.65702    2.60141   -1.13565
P     -1.40189   -0.01602   -0.01066
S     -2.52423   -1.47000   -1.06928
C     -2.35103    1.42795   -0.61312
Si    -2.56517   -0.26936    1.81554
H     -3.36873    1.10976   -0.92368
H     -1.83412    1.88498   -1.48336
H     -2.43999    2.18630    0.19335
H     -1.71640   -1.53218   -2.14670
H     -4.02005   -0.03980    1.56932
H     -2.10905    0.71000    2.84350
H     -2.39667   -1.65800    2.33253
