22
symmetry c1
Ni     0.83790    0.00638    0.00502
C      1.33771   -0.17195    1.73111
C      1.36973   -1.38813   -1.01138
C      1.33687    1.59507   -0.69356
O      1.65844   -0.28514    2.82425
O      1.71096   -2.27106   -1.65533
O      1.65702    2.60141   -1.13565
P     -1.40189   -0.01602   -0.01066
O     -2.17574   -1.18769   -1.02122
C     -2.35103    1.42795   -0.61312
Si    -2.56517   -0.26936    1.81554
N     -1.64659    2.29219   -1.40404
O     -3.54669    1.61913   -0.33188
H     -2.07914    3.10093   -1.77602
H     -0.69830    2.12895   -1.62015
C     -3.38514   -1.77608   -0.53881
H     -3.21408   -2.31570    0.40437
H     -4.16128   -1.01271   -0.38102
H     -3.70643   -2.47667   -1.31362
H     -4.02005   -0.03980    1.56932
H     -2.10905    0.71000    2.84350
H     -2.39667   -1.65800    2.33253
