17
symmetry c1
Ni     0.83790    0.00638    0.00502
C      1.33771   -0.17195    1.73111
C      1.36973   -1.38813   -1.01138
C      1.33687    1.59507   -0.69356
O      1.65844   -0.28514    2.82425
O      1.71096   -2.27106   -1.65533
O      1.65702    2.60141   -1.13565
P     -1.40189   -0.01602   -0.01066
C     -2.32190   -1.26781   -0.97786
C     -2.35103    1.42795   -0.61312
C     -2.34967   -0.23604    1.53924
N     -2.95417    2.34553   -0.99596
N     -2.90653   -2.06327   -1.59248
N     -2.86953   -1.48661    1.72501
O     -2.51465    0.67502    2.36869
H     -3.39623   -1.69771    2.53591
H     -2.73113   -2.20106    1.05941
