16
symmetry c1
Ni     0.83790    0.00638    0.00502
C      1.33771   -0.17195    1.73111
C      1.36973   -1.38813   -1.01138
C      1.33687    1.59507   -0.69356
O      1.65844   -0.28514    2.82425
O      1.71096   -2.27106   -1.65533
O      1.65702    2.60141   -1.13565
P     -1.40189   -0.01602   -0.01066
H     -2.11729   -0.98941   -0.76276
S     -2.60815    1.61266   -0.63253
S     -2.50909   -0.35207    1.76573
C     -1.50666    2.54654   -1.75098
H     -0.61934    2.90475   -1.21880
H     -1.21047    1.93572   -2.61007
H     -2.09417    3.40199   -2.09719
H     -2.45552    0.91550    2.22148
