26
symmetry c1
Ni     0.83710   -0.03559   -0.14696
C      1.01025    0.34794    1.60742
C      1.44215   -1.68927   -0.55207
C      1.55280    1.22931   -1.21791
O      1.11092    0.59458    2.72207
O      1.82524   -2.73783   -0.80723
O      2.00643    2.02910   -1.90144
P     -1.36242   -0.03028   -0.54312
C     -1.95142    0.14642   -2.26671
C     -2.35828    1.32887    0.24122
O     -2.32285   -1.40216   -0.10905
H     -3.41475    1.23549   -0.05571
H     -2.30662    1.15083    1.32832
C     -1.80123    2.71064   -0.09873
H     -0.74948    2.79720    0.21401
H     -1.84494    2.90879   -1.18202
C     -2.60470    3.81567    0.61187
H     -3.49387    4.09578    0.03565
H     -2.94240    3.48942    1.60214
H     -2.00238    4.72076    0.75018
O     -2.21682    1.24359   -2.73583
C     -2.10308   -1.11694   -3.10607
H     -1.14266   -1.64228   -3.18621
H     -2.81130   -1.80943   -2.63312
H     -2.46028   -0.84344   -4.10111
H     -3.26129   -1.13909   -0.11877
