40
symmetry c1
Ni     0.83710   -0.03559   -0.14696
C      1.01025    0.34794    1.60742
C      1.44215   -1.68927   -0.55207
C      1.55280    1.22931   -1.21791
O      1.11092    0.59458    2.72207
O      1.82524   -2.73783   -0.80723
O      2.00643    2.02910   -1.90144
P     -1.36242   -0.03028   -0.54312
C     -1.94809    0.09439   -2.27239
C     -2.35828    1.32887    0.24122
O     -2.32285   -1.40216   -0.10905
H     -3.41475    1.23549   -0.05571
H     -2.30662    1.15083    1.32832
C     -1.80123    2.71064   -0.09873
H     -0.74948    2.79720    0.21401
H     -1.84494    2.90879   -1.18202
C     -2.60470    3.81567    0.61187
H     -3.49387    4.09578    0.03565
H     -2.94240    3.48942    1.60214
H     -2.00238    4.72076    0.75018
C     -2.67569   -0.95221   -2.83957
C     -1.66700    1.23564   -3.02344
C     -3.12265   -0.85721   -4.15730
C     -2.11318    1.33041   -4.34191
C     -2.84102    0.28430   -4.90887
H     -3.69670   -1.68184   -4.60423
H     -1.89105    2.23018   -4.93398
C     -2.98673   -2.21159   -2.00963
H     -3.51553   -1.93239   -1.12232
H     -2.07166   -2.69711   -1.74161
H     -3.58910   -2.88031   -2.58830
C     -3.33461    0.38885   -6.36388
H     -4.40285    0.33049   -6.38319
H     -2.92309   -0.41435   -6.93870
H     -3.02086    1.32305   -6.78069
C     -0.86366    2.39091   -2.39768
H      0.11663    2.04637   -2.14230
H     -1.36189    2.73494   -1.51545
H     -0.78757    3.19413   -3.10050
H     -3.26129   -1.13909   -0.11877
