42
symmetry c1
Ni     0.83790    0.00638    0.00502
C      1.33771   -0.17195    1.73111
C      1.36973   -1.38813   -1.01138
C      1.33687    1.59507   -0.69356
O      1.65844   -0.28514    2.82425
O      1.71096   -2.27106   -1.65533
O      1.65702    2.60141   -1.13565
P     -1.40189   -0.01602   -0.01066
F     -2.06164   -1.11816   -1.03027
C     -2.19597    1.40293   -0.85025
C     -2.14643   -0.33994    1.64050
C     -1.36579   -1.41319    2.42180
C     -3.63806   -0.70834    1.53545
H     -4.20229    0.06932    1.01169
H     -3.77797   -1.64705    0.98837
H     -4.07603   -0.83639    2.53138
H     -1.40617   -2.38277    1.91355
H     -1.78811   -1.54609    3.42383
H     -0.31229   -1.13734    2.52906
C     -2.05153    0.97237    2.44077
H     -3.03963    1.30773    2.77587
H     -1.42422    0.85215    3.33136
H     -1.61696    1.77729    1.83715
C     -1.78623    2.70431   -0.55872
C     -3.21090    1.18347   -1.78154
C     -2.39087    3.78590   -1.19888
C     -3.81652    2.26532   -2.42125
C     -3.40660    3.56640   -2.13019
H     -2.06753    4.81166   -0.96961
H     -4.61700    2.09201   -3.15518
C     -0.66488    2.94609    0.46876
H      0.21654    2.42103    0.16495
H     -0.97811    2.59174    1.42856
H     -0.45396    3.99350    0.52668
C     -4.07408    4.76087   -2.83680
H     -3.33734    5.30536   -3.38966
H     -4.51933    5.40387   -2.10659
H     -4.82935    4.40332   -3.50511
C     -3.66352   -0.25291   -2.10331
H     -4.06924   -0.70481   -1.22236
H     -2.82454   -0.82361   -2.44288
H     -4.41128   -0.22832   -2.86827
