39
symmetry c1
Ni     0.83790    0.00638    0.00502
C      1.33771   -0.17195    1.73111
C      1.36973   -1.38813   -1.01138
C      1.33687    1.59507   -0.69356
O      1.65844   -0.28514    2.82425
O      1.71096   -2.27106   -1.65533
O      1.65702    2.60141   -1.13565
P     -1.40189   -0.01602   -0.01066
C     -2.13808   -1.24585   -1.14839
I     -2.44330    1.84492   -1.11174
C     -2.14643   -0.33994    1.64050
C     -1.36579   -1.41319    2.42180
C     -3.63806   -0.70834    1.53545
H     -4.20229    0.06932    1.01169
H     -3.77797   -1.64705    0.98837
H     -4.07603   -0.83639    2.53138
H     -1.40617   -2.38277    1.91355
H     -1.78811   -1.54609    3.42383
H     -0.31229   -1.13734    2.52906
C     -2.05153    0.97237    2.44077
H     -3.03963    1.30773    2.77587
H     -1.42422    0.85215    3.33136
H     -1.61696    1.77729    1.83715
H     -3.12690   -1.20309   -1.00100
C     -1.72410   -2.67453   -0.81452
H     -1.89461   -2.85909    0.14270
H     -0.75515   -2.79250   -0.98540
C     -2.52769   -3.64799   -1.68212
H     -2.24667   -4.57640   -1.48441
H     -3.48961   -3.56534   -1.46666
C     -2.31006   -3.35505   -3.15911
H     -2.85449   -3.97741   -3.70256
H     -1.35848   -3.50196   -3.38793
C     -2.69716   -1.91647   -3.48948
H     -3.66682   -1.79412   -3.33885
H     -2.51077   -1.73645   -4.44536
C     -1.91829   -0.92264   -2.62231
H     -0.95301   -0.97671   -2.83650
H     -2.22482   -0.00103   -2.81166
