43
symmetry c1
Ni     0.88836    0.26983   -0.01714
C      1.52530    0.99042    1.50748
C      1.39833   -1.44737   -0.24855
C      1.26776    1.29313   -1.45698
O      1.93197    1.44527    2.47820
O      1.71586   -2.53802   -0.39832
O      1.50924    1.94408   -2.36773
P     -1.34219    0.21847    0.13635
N     -2.16802   -0.79635   -1.07052
C     -2.21423   -0.57325    1.60569
C     -1.57059   -1.94895    1.83331
C     -3.71464   -0.71791    1.32213
H     -4.18728    0.25830    1.13032
H     -3.90255   -1.36584    0.45176
H     -4.22130   -1.16976    2.19204
H     -1.69218   -2.60650    0.95740
H     -2.04410   -2.44720    2.69531
H     -0.49425   -1.85455    2.04003
C     -1.98842    0.32586    2.83062
H     -2.43003    1.32517    2.68843
H     -2.46540   -0.12707    3.71549
H     -0.91968    0.45227    3.05619
C     -2.36202    1.70976   -0.21238
C     -3.41614    1.93776    0.88691
H     -4.41935    1.66432    0.54063
H     -3.19959    1.33764    1.77802
H     -3.44886    2.98854    1.19658
C     -3.11012    1.57673   -1.55188
H     -2.41917    1.36294   -2.37528
H     -3.84579    0.76505   -1.51914
H     -3.64690    2.49880   -1.80240
C     -1.49209    2.97808   -0.29098
H     -1.70744    3.66166    0.53815
H     -0.42472    2.73314   -0.24808
H     -1.66790    3.52533   -1.22410
C     -3.37857   -1.50695   -0.67927
H     -3.74423   -2.08426   -1.53253
H     -3.16449   -2.21057    0.13433
H     -4.17974   -0.82623   -0.34153
C     -2.02246   -0.46605   -2.48231
H     -0.96966   -0.52585   -2.78380
H     -2.58211   -1.19233   -3.07760
H     -2.39010    0.54745   -2.72103
