45
symmetry c1
Ni     0.83790    0.00638    0.00502
C      1.33771   -0.17195    1.73111
C      1.36973   -1.38813   -1.01138
C      1.33687    1.59507   -0.69356
O      1.65844   -0.28514    2.82425
O      1.71096   -2.27106   -1.65533
O      1.65702    2.60141   -1.13565
P     -1.40189   -0.01602   -0.01066
C     -2.13808   -1.24585   -1.14839
C     -2.19596    1.40296   -0.85022
C     -2.14643   -0.33994    1.64050
C     -1.36579   -1.41319    2.42180
C     -3.63806   -0.70834    1.53545
H     -4.20229    0.06932    1.01169
H     -3.77797   -1.64705    0.98837
H     -4.07603   -0.83639    2.53138
H     -1.40617   -2.38277    1.91355
H     -1.78811   -1.54609    3.42383
H     -0.31229   -1.13734    2.52906
C     -2.05153    0.97237    2.44077
H     -3.03963    1.30773    2.77587
H     -1.42422    0.85215    3.33136
H     -1.61696    1.77729    1.83715
F     -1.67712   -1.00676   -2.54498
H     -1.87498   -2.25739   -0.82766
H     -3.22895   -1.16585   -1.10389
C     -3.28008    1.19155   -1.70254
C     -1.71734    2.69582   -0.63814
C     -3.88581    2.27289   -2.34208
C     -2.32252    3.77750   -1.27857
C     -3.40668    3.56627   -2.13033
H     -4.74073    2.10641   -3.01342
H     -1.94467    4.79671   -1.11148
C     -3.80886   -0.23593   -1.93556
H     -4.08220   -0.67255   -0.99771
H     -3.04583   -0.82822   -2.39585
H     -4.66596   -0.19883   -2.57501
C     -4.07569    4.76003   -2.83671
H     -5.10252    4.81923   -2.54173
H     -4.01623    4.62627   -3.89665
H     -3.57315    5.66401   -2.56254
C     -0.52053    2.92940    0.30243
H      0.34329    2.43460   -0.08986
H     -0.74685    2.53702    1.27182
H     -0.32647    3.97888    0.37885
