27
symmetry c1
Ni     0.83790    0.00638    0.00502
C      1.33771   -0.17195    1.73111
C      1.36973   -1.38813   -1.01138
C      1.33687    1.59507   -0.69356
O      1.65844   -0.28514    2.82425
O      1.71096   -2.27106   -1.65533
O      1.65702    2.60141   -1.13565
P     -1.40189   -0.01602   -0.01066
C     -2.13808   -1.24585   -1.14839
O     -2.15257    1.32541   -0.80435
C     -2.14643   -0.33994    1.64050
C     -1.36579   -1.41319    2.42180
C     -3.63806   -0.70834    1.53545
H     -4.20229    0.06932    1.01169
H     -3.77797   -1.64705    0.98837
H     -4.07603   -0.83639    2.53138
H     -1.40617   -2.38277    1.91355
H     -1.78811   -1.54609    3.42383
H     -0.31229   -1.13734    2.52906
C     -2.05153    0.97237    2.44077
H     -3.03963    1.30773    2.77587
H     -1.42422    0.85215    3.33136
H     -1.61696    1.77729    1.83715
Cl    -1.95298   -0.72780   -2.82021
H     -1.67052   -2.22256   -0.99761
H     -3.20181   -1.35692   -0.91490
H     -1.71182    2.14434   -0.51269
