42
symmetry c1
Ni     0.83790    0.00638    0.00502
C      1.33771   -0.17195    1.73111
C      1.36973   -1.38813   -1.01138
C      1.33687    1.59507   -0.69356
O      1.65844   -0.28514    2.82425
O      1.71096   -2.27106   -1.65533
O      1.65702    2.60141   -1.13565
P     -1.40189   -0.01602   -0.01066
C     -2.13808   -1.24585   -1.14839
C     -2.19596    1.40295   -0.85023
C     -2.14643   -0.33994    1.64050
C     -1.36579   -1.41319    2.42180
C     -3.63806   -0.70834    1.53545
H     -4.20229    0.06932    1.01169
H     -3.77797   -1.64705    0.98837
H     -4.07603   -0.83639    2.53138
H     -1.40617   -2.38277    1.91355
H     -1.78811   -1.54609    3.42383
H     -0.31229   -1.13734    2.52906
C     -2.05153    0.97237    2.44077
H     -3.03963    1.30773    2.77587
H     -1.42422    0.85215    3.33136
H     -1.61696    1.77729    1.83715
F     -1.67712   -1.00676   -2.54498
H     -1.87498   -2.25739   -0.82766
H     -3.22895   -1.16585   -1.10389
H     -1.93203    1.33859   -1.81331
C     -1.66789    2.74558   -0.35784
H     -0.67921    2.75433   -0.40085
H     -1.93868    2.88823    0.58466
C     -2.23573    3.86375   -1.23724
H     -1.91290    4.73968   -0.90779
H     -1.91604    3.74772   -2.16615
C     -3.75684    3.84242   -1.21619
H     -4.10496    4.55541   -1.80740
H     -4.07671    4.02412   -0.29743
C     -4.28676    2.48929   -1.68176
H     -4.03640    2.34600   -2.62764
H     -5.27536    2.48469   -1.62271
C     -3.71978    1.35127   -0.82750
H     -4.04379    1.43896    0.10411
H     -4.02995    0.48063   -1.18098
