51
symmetry c1
Ni     0.88836    0.26983   -0.01714
C      1.52530    0.99042    1.50748
C      1.39833   -1.44737   -0.24855
C      1.26776    1.29313   -1.45698
O      1.93197    1.44527    2.47820
O      1.71586   -2.53802   -0.39832
O      1.50924    1.94408   -2.36773
P     -1.34219    0.21847    0.13635
C     -2.23421   -0.78030   -1.11091
C     -2.21423   -0.57325    1.60569
C     -1.57059   -1.94895    1.83331
C     -3.71464   -0.71791    1.32213
H     -4.18728    0.25830    1.13032
H     -3.90255   -1.36584    0.45176
H     -4.22130   -1.16976    2.19204
H     -1.69218   -2.60650    0.95740
H     -2.04410   -2.44720    2.69531
H     -0.49425   -1.85455    2.04003
C     -1.98842    0.32586    2.83062
H     -2.43003    1.32517    2.68843
H     -2.46540   -0.12707    3.71549
H     -0.91968    0.45227    3.05619
C     -2.36202    1.70976   -0.21238
C     -3.41614    1.93776    0.88691
H     -4.41935    1.66432    0.54063
H     -3.19959    1.33764    1.77802
H     -3.44886    2.98854    1.19658
C     -3.11012    1.57673   -1.55188
H     -2.41917    1.36294   -2.37528
H     -3.84579    0.76505   -1.51914
H     -3.64690    2.49880   -1.80240
C     -1.49209    2.97808   -0.29098
H     -1.70744    3.66166    0.53815
H     -0.42472    2.73314   -0.24808
H     -1.66790    3.52533   -1.22410
H     -3.08340   -0.28782   -1.30499
C     -2.65204   -2.14616   -0.57816
H     -3.14047   -2.03898    0.27587
H     -1.84873   -2.70106   -0.40859
C     -3.55231   -2.83512   -1.60819
H     -3.80857   -3.73180   -1.27609
H     -4.37843   -2.30516   -1.73148
C     -2.83296   -2.97379   -2.94159
H     -3.43729   -3.39879   -3.59981
H     -2.04227   -3.55857   -2.83072
C     -2.38884   -1.61004   -3.46264
H     -3.18521   -1.05513   -3.65173
H     -1.88960   -1.72777   -4.30984
C     -1.49958   -0.89264   -2.44241
H     -0.65747   -1.39866   -2.31841
H     -1.27018    0.01072   -2.77479
