31
symmetry c1
Ni     0.83790    0.00638    0.00502
C      1.33771   -0.17195    1.73111
C      1.36973   -1.38813   -1.01138
C      1.33687    1.59507   -0.69356
O      1.65844   -0.28514    2.82425
O      1.71096   -2.27106   -1.65533
O      1.65702    2.60141   -1.13565
P     -1.40189   -0.01602   -0.01066
C     -2.16265   -1.19243   -1.18803
O     -2.23610    1.33523   -0.69704
C     -2.14643   -0.33994    1.64050
C     -1.36579   -1.41319    2.42180
C     -3.63806   -0.70834    1.53545
H     -4.20229    0.06932    1.01169
H     -3.77797   -1.64705    0.98837
H     -4.07603   -0.83639    2.53138
H     -1.40617   -2.38277    1.91355
H     -1.78811   -1.54609    3.42383
H     -0.31229   -1.13734    2.52906
C     -2.05153    0.97237    2.44077
H     -3.03963    1.30773    2.77587
H     -1.42422    0.85215    3.33136
H     -1.61696    1.77729    1.83715
H     -1.74586   -1.00591   -2.19298
H     -3.24634   -0.98914   -1.24019
O     -1.92468   -2.54575   -0.78944
H     -2.34584   -3.11413   -1.44270
C     -1.79964    1.79656   -1.97699
H     -0.75075    2.12622   -1.94241
H     -1.90460    1.00956   -2.73835
H     -2.44583    2.64194   -2.22626
