37
symmetry c1
Ni     0.83790    0.00638    0.00502
C      1.33771   -0.17195    1.73111
C      1.36973   -1.38813   -1.01138
C      1.33687    1.59507   -0.69356
O      1.65844   -0.28514    2.82425
O      1.71096   -2.27106   -1.65533
O      1.65702    2.60141   -1.13565
P     -1.40189   -0.01602   -0.01066
C     -2.17443   -1.23509   -1.13580
N     -2.16857    1.39624   -0.77625
C     -2.14643   -0.33994    1.64050
C     -1.36579   -1.41319    2.42180
C     -3.63806   -0.70834    1.53545
H     -4.20229    0.06932    1.01169
H     -3.77797   -1.64705    0.98837
H     -4.07603   -0.83639    2.53138
H     -1.40617   -2.38277    1.91355
H     -1.78811   -1.54609    3.42383
H     -0.31229   -1.13734    2.52906
C     -2.05153    0.97237    2.44077
H     -3.03963    1.30773    2.77587
H     -1.42422    0.85215    3.33136
H     -1.61696    1.77729    1.83715
H     -1.84596   -2.25392   -0.90093
H     -3.26906   -1.21075   -1.04507
C     -1.82353   -0.93587   -2.60514
H     -2.61412   -1.28119   -3.23808
H     -1.69816    0.11889   -2.73423
H     -0.91450   -1.43742   -2.86400
C     -1.38736    2.19941   -1.70795
H     -2.00534    3.02440   -2.07203
H     -0.51463    2.63172   -1.20367
H     -1.02837    1.61564   -2.57379
C     -3.61507    1.39946   -0.95244
H     -4.12009    1.33695    0.01912
H     -3.91432    2.33892   -1.42457
H     -3.96832    0.55995   -1.57675
