34
symmetry c1
Ni     0.83790    0.00638    0.00502
C      1.33771   -0.17195    1.73111
C      1.36973   -1.38813   -1.01138
C      1.33687    1.59507   -0.69356
O      1.65844   -0.28514    2.82425
O      1.71096   -2.27106   -1.65533
O      1.65702    2.60141   -1.13565
P     -1.40189   -0.01602   -0.01066
C     -2.16463   -1.18794   -1.19122
N     -2.14612    1.40142   -0.78873
C     -2.14643   -0.33994    1.64050
C     -1.36579   -1.41319    2.42180
C     -3.63806   -0.70834    1.53545
H     -4.20229    0.06932    1.01169
H     -3.77797   -1.64705    0.98837
H     -4.07603   -0.83639    2.53138
H     -1.40617   -2.38277    1.91355
H     -1.78811   -1.54609    3.42383
H     -0.31229   -1.13734    2.52906
C     -2.05153    0.97237    2.44077
H     -3.03963    1.30773    2.77587
H     -1.42422    0.85215    3.33136
H     -1.61696    1.77729    1.83715
O     -2.79111   -0.87066   -2.18340
O     -1.96205   -2.49970   -0.84911
H     -2.40482   -3.02227   -1.53719
C     -1.61661    1.85868   -2.06700
H     -2.17973    2.73752   -2.39195
H     -0.56540    2.15378   -1.96342
H     -1.67958    1.08588   -2.85322
C     -3.54311    1.70414   -0.50556
H     -3.68338    1.90359    0.56375
H     -3.83058    2.60511   -1.05388
H     -4.22203    0.88194   -0.79259
