58
symmetry c1
Ni     1.01791    0.00818    0.00628
C      2.09677   -0.04646    1.45337
C      1.96680   -1.22474   -0.91028
C      2.07270    1.42564   -0.36675
O      2.78397   -0.08117    2.36836
O      2.57200   -2.00441   -1.49039
O      2.74459    2.32222   -0.60202
P     -1.58190   -0.01782   -0.01192
C     -2.10267   -1.42231   -1.06315
C     -2.28041    1.44220   -0.86594
Si    -2.74721   -0.28834    1.89369
C     -4.01407   -1.64712    1.80220
H     -4.20053   -1.94968    0.76547
H     -3.68551   -2.53666    2.35162
H     -4.97151   -1.32950    2.23062
C     -1.63654   -0.37208    3.38333
H     -2.21679   -0.39894    4.31268
H     -1.00662   -1.26864    3.36149
H     -0.97141    0.49745    3.43452
C     -3.91225    1.14164    2.13332
H     -4.37452    1.44272    1.18634
H     -4.72011    0.88600    2.82839
H     -3.39191    2.01653    2.53945
H     -2.81914   -1.06766   -1.66500
C     -2.74575   -2.54787   -0.26093
H     -3.46698   -2.18386    0.31069
H     -2.06899   -2.97178    0.32580
C     -3.32297   -3.58829   -1.22553
H     -3.72257   -4.33225   -0.70896
H     -4.03719   -3.17337   -1.76983
C     -2.23624   -4.13184   -2.14108
H     -2.63173   -4.78381   -2.77163
H     -1.55509   -4.60427   -1.60043
C     -1.57194   -3.00300   -2.92400
H     -2.23609   -2.58531   -3.52595
H     -0.84320   -3.37407   -3.48266
C     -1.00044   -1.93970   -1.98109
H     -0.26983   -2.33106   -1.43922
H     -0.62585   -1.19091   -2.50850
C     -1.99825    1.66273   -2.21435
C     -3.09478    2.33460   -0.16884
C     -2.53094    2.77508   -2.86561
C     -3.62692    3.44787   -0.81989
C     -3.34526    3.66816   -2.16811
H     -2.30910    2.94863   -3.92861
H     -4.26865    4.15154   -0.26990
C     -1.09994    0.67660   -2.98389
H     -1.51931   -0.30619   -2.92779
H     -0.12176    0.67227   -2.55025
H     -1.03460    0.97855   -4.00832
C     -3.93321    4.89633   -2.88748
H     -4.55034    4.57255   -3.69941
H     -3.13716    5.50369   -3.26472
H     -4.52066    5.46609   -2.19815
C     -3.40617    2.09152    1.31964
H     -2.49861    2.13130    1.88501
H     -3.85754    1.12850    1.43695
H     -4.07872    2.84586    1.67114
