42
symmetry c1
Ni     1.01791    0.00818    0.00628
C      2.09677   -0.04646    1.45337
C      1.96680   -1.22474   -0.91028
C      2.07270    1.42564   -0.36675
O      2.78397   -0.08117    2.36836
O      2.57200   -2.00441   -1.49039
O      2.74459    2.32222   -0.60202
P     -1.58190   -0.01782   -0.01192
C     -2.10267   -1.42231   -1.06315
C     -2.28039    1.44220   -0.86595
Si    -2.74721   -0.28834    1.89369
C     -4.01407   -1.64712    1.80220
H     -4.20053   -1.94968    0.76547
H     -3.68551   -2.53666    2.35162
H     -4.97151   -1.32950    2.23062
C     -1.63654   -0.37208    3.38333
H     -2.21679   -0.39894    4.31268
H     -1.00662   -1.26864    3.36149
H     -0.97141    0.49745    3.43452
C     -3.91225    1.14164    2.13332
H     -4.37452    1.44272    1.18634
H     -4.72011    0.88600    2.82839
H     -3.39191    2.01653    2.53945
F     -3.57719   -1.39676   -1.27580
H     -1.57826   -1.38724   -2.02184
H     -1.81931   -2.35954   -0.57354
H     -2.73885    1.09226   -1.68368
C     -1.20423    2.40017   -1.36411
H     -0.53357    1.90472   -1.89718
H     -0.74157    2.81650   -0.59302
C     -1.85542    3.48479   -2.22762
H     -1.16328    4.12202   -2.53563
H     -2.26721    3.06883   -3.02508
C     -2.91883    4.23273   -1.43742
H     -3.34404    4.91217   -2.01763
H     -2.49498    4.70279   -0.67661
C     -3.98186    3.27132   -0.91379
H     -4.46130    2.86411   -1.67682
H     -4.64086    3.77297   -0.37073
C     -3.35330    2.16604   -0.05965
H     -2.95091    2.56056    0.75460
H     -4.05064    1.52287    0.22183
