47
symmetry c1
Ni     1.01791    0.00818    0.00628
C      2.09677   -0.04646    1.45337
C      1.96680   -1.22474   -0.91028
C      2.07270    1.42564   -0.36675
O      2.78397   -0.08117    2.36836
O      2.57200   -2.00441   -1.49039
O      2.74459    2.32222   -0.60202
P     -1.58190   -0.01782   -0.01192
C     -2.10267   -1.42231   -1.06315
N     -2.23273    1.43794   -0.80287
Si    -2.74721   -0.28834    1.89369
C     -4.01407   -1.64712    1.80220
H     -4.20053   -1.94968    0.76547
H     -3.68551   -2.53666    2.35162
H     -4.97151   -1.32950    2.23062
C     -1.63654   -0.37208    3.38333
H     -2.21679   -0.39894    4.31268
H     -1.00662   -1.26864    3.36149
H     -0.97141    0.49745    3.43452
C     -3.91225    1.14164    2.13332
H     -4.37452    1.44272    1.18634
H     -4.72011    0.88600    2.82839
H     -3.39191    2.01653    2.53945
H     -2.81914   -1.06766   -1.66500
C     -2.74575   -2.54787   -0.26093
H     -3.46698   -2.18386    0.31069
H     -2.06899   -2.97178    0.32580
C     -3.32297   -3.58829   -1.22553
H     -3.72257   -4.33225   -0.70896
H     -4.03719   -3.17337   -1.76983
C     -2.23624   -4.13184   -2.14108
H     -2.63173   -4.78381   -2.77163
H     -1.55509   -4.60427   -1.60043
C     -1.57194   -3.00300   -2.92400
H     -2.23609   -2.58531   -3.52595
H     -0.84320   -3.37407   -3.48266
C     -1.00044   -1.93970   -1.98109
H     -0.26983   -2.33106   -1.43922
H     -0.62585   -1.19091   -2.50850
C     -1.64036    1.87775   -2.05949
H     -2.15062    2.78415   -2.39584
H     -0.58048    2.12237   -1.91922
H     -1.71342    1.11371   -2.85336
C     -3.62261    1.80433   -0.56326
H     -3.78869    2.00347    0.50240
H     -3.84924    2.72126   -1.11365
H     -4.32944    1.01683   -0.87880
