32
symmetry c1
Ni     1.01791    0.00818    0.00628
C      2.09677   -0.04646    1.45337
C      1.96680   -1.22474   -0.91028
C      2.07270    1.42564   -0.36675
O      2.78397   -0.08117    2.36836
O      2.57200   -2.00441   -1.49039
O      2.74459    2.32222   -0.60202
P     -1.58190   -0.01782   -0.01192
C     -2.04330   -1.40752   -1.10953
C     -2.29886    1.41779   -0.89162
Si    -2.74721   -0.28834    1.89369
C     -4.01407   -1.64712    1.80220
H     -4.20053   -1.94968    0.76547
H     -3.68551   -2.53666    2.35162
H     -4.97151   -1.32950    2.23062
C     -1.63654   -0.37208    3.38333
H     -2.21679   -0.39894    4.31268
H     -1.00662   -1.26864    3.36149
H     -0.97141    0.49745    3.43452
C     -3.91225    1.14164    2.13332
H     -4.37452    1.44272    1.18634
H     -4.72011    0.88600    2.82839
H     -3.39191    2.01653    2.53945
O     -1.44432   -1.72989   -2.11693
O     -3.16096   -2.07712   -0.68374
H     -3.30829   -2.78289   -1.33393
H     -1.51355    2.06639   -1.29620
H     -2.92234    1.08762   -1.73382
C     -3.18925    2.25560    0.04480
H     -3.95418    2.73773   -0.52732
H     -3.63955    1.61630    0.77516
H     -2.59266    2.99487    0.53720
