31
symmetry c1
Ni     1.01791    0.00818    0.00628
C      2.09677   -0.04646    1.45337
C      1.96680   -1.22474   -0.91028
C      2.07270    1.42564   -0.36675
O      2.78397   -0.08117    2.36836
O      2.57200   -2.00441   -1.49039
O      2.74459    2.32222   -0.60202
P     -1.58190   -0.01782   -0.01192
C     -2.06219   -1.41247   -1.09505
Si    -2.39496    1.74561   -1.00270
Si    -2.74721   -0.28834    1.89369
C     -4.01407   -1.64712    1.80220
H     -4.20053   -1.94968    0.76547
H     -3.68551   -2.53666    2.35162
H     -4.97151   -1.32950    2.23062
C     -1.63654   -0.37208    3.38333
H     -2.21679   -0.39894    4.31268
H     -1.00662   -1.26864    3.36149
H     -0.97141    0.49745    3.43452
C     -3.91225    1.14164    2.13332
H     -4.37452    1.44272    1.18634
H     -4.72011    0.88600    2.82839
H     -3.39191    2.01653    2.53945
O     -1.41766   -1.68737   -2.09671
C     -3.29327   -2.22629   -0.71330
H     -3.16644   -2.67022    0.28251
H     -4.18082   -1.58203   -0.66885
H     -3.44382   -3.01432   -1.45414
H     -1.93530    3.00206   -0.33931
H     -3.88489    1.71173   -0.94910
H     -1.94235    1.77992   -2.42324
